drugbank_target|P61713 6,7-dimethyl-8-ribityllumazine synthase 2 (DB04162)
 OpenBabel12092120003D

  0  0  0     0  0            999 V3000
M  V30 BEGIN CTAB
M  V30 COUNTS 2445 2475 0 0 0
M  V30 BEGIN ATOM
M  V30 1 H -0.908 1.98254 -0.117106 0
M  V30 2 N 0 1.576 0 0
M  V30 3 C 0.933 2.03868 1.02534 0
M  V30 4 C 1.911 0.928543 1.3348 0
M  V30 5 O 3.095 1.19667 1.45644 0
M  V30 6 C 0.222 2.43627 2.35294 0
M  V30 7 C -0.732 3.65373 2.2001 0
M  V30 8 S 0.101 5.13292 1.52614 0
M  V30 9 C 1.257 5.56322 2.86805 0
M  V30 10 H 1.49 2.90518 0.631377 0
M  V30 11 H -0.977 1.52953 0.210867 0
M  V30 12 H 0.981 2.67203 3.11629 0
M  V30 13 H -0.358 1.57376 2.7183 0
M  V30 14 H -1.165 3.90944 3.18086 0
M  V30 15 H -1.563 3.418 1.51819 0
M  V30 16 H 0.729 5.58782 3.83104 0
M  V30 17 H 1.672 6.56266 2.65933 0
M  V30 18 H 2.08 4.83886 2.90714 0
M  V30 19 N 1.4781 -0.272755 1.55222 0
M  V30 20 C 2.4261 -1.35705 1.88909 0
M  V30 21 C 3.4201 -1.5112 0.765456 0
M  V30 22 O 4.6261 -1.52901 0.949802 0
M  V30 23 H 1.0011 -0.453868 0.59959 0
M  V30 24 H 2.9721 -1.04544 2.79487 0
M  V30 25 C 1.7211 -2.71049 2.17779 0
M  V30 26 H 1.0441 -2.59979 3.03728 0
M  V30 27 H 2.4841 -3.45858 2.45272 0
M  V30 28 C 0.9431 -3.22165 0.985473 0
M  V30 29 O 1.4731 -4.01096 0.220233 0
M  V30 30 N -0.3209 -2.7985 0.783108 0
M  V30 31 H -0.7739 -2.15775 1.40708 0
M  V30 32 H -0.8159 -3.14397 -0.0130392 0
M  V30 33 N 2.9562 -1.48159 -0.537278 0
M  V30 34 C 3.8882 -1.58218 -1.65831 0
M  V30 35 C 4.9012 -0.466948 -1.5596 0
M  V30 36 O 6.0902 -0.73747 -1.62553 0
M  V30 37 C 3.1902 -1.48906 -3.04434 0
M  V30 38 C 2.3632 -2.75343 -3.3986 0
M  V30 39 C 1.4222 -2.59588 -4.57712 0
M  V30 40 O 0.4482 -3.33457 -4.61297 0
M  V30 41 N 1.6502 -1.68724 -5.55439 0
M  V30 42 H 4.4152 -2.54891 -1.57641 0
M  V30 43 H 1.9762 -1.4479 -0.724386 0
M  V30 44 H 3.9682 -1.36072 -3.81139 0
M  V30 45 H 2.5382 -0.602368 -3.06741 0
M  V30 46 H 1.7582 -3.02795 -2.52406 0
M  V30 47 H 3.0462 -3.5924 -3.60311 0
M  V30 48 H 2.4442 -1.07898 -5.55315 0
M  V30 49 H 1.0012 -1.61832 -6.3139 0
M  V30 50 N 4.4343 0.785586 -1.36625 0
M  V30 51 C 5.6593 1.57963 -1.34397 0
M  V30 52 C 6.0843 1.87964 0.071526 0
M  V30 53 O 5.4423 1.48182 1.0446 0
M  V30 54 C 5.4903 2.87511 -2.17646 0
M  V30 55 O 4.5943 3.81281 -1.57158 0
M  V30 56 H 3.9353 0.479014 -0.459828 0
M  V30 57 H 6.4653 0.973411 -1.79961 0
M  V30 58 H 6.4753 3.36745 -2.30362 0
M  V30 59 H 5.1503 2.65002 -3.20541 0
M  V30 60 H 3.7273 3.39885 -1.53403 0
M  V30 61 N 5.9124 1.20967 1.01018 0
M  V30 62 C 7.1524 1.03511 1.76252 0
M  V30 63 C 7.5164 -0.42458 1.87247 0
M  V30 64 O 8.7174 -0.719508 2.58991 0
M  V30 65 C 6.9884 1.70726 3.13986 0
M  V30 66 S 8.5474 1.68458 4.05176 0
M  V30 67 H 5.3654 0.371037 0.606508 0
M  V30 68 H 7.9674 1.53628 1.20908 0
M  V30 69 H 6.6714 2.76128 3.03614 0
M  V30 70 H 6.2024 1.20767 3.74405 0
M  V30 71 H 8.2174 0.721987 4.90919 0
M  V30 72 N 7.3905 -1.2043 1.01659 0
M  V30 73 C 8.8015 -1.71517 0.737482 0
M  V30 74 C 9.1525 -1.81547 -0.743973 0
M  V30 75 O 8.2775 -1.47803 -1.58061 0
M  V30 76 C 8.8725 -3.11515 1.33206 0
M  V30 77 C 7.4315 -3.59912 1.10183 0
M  V30 78 C 6.5785 -2.37116 1.43776 0
M  V30 79 H 9.5295 -1.05444 1.18606 0
M  V30 80 H 9.5505 -3.73575 0.722636 0
M  V30 81 H 9.0625 -3.04182 2.41028 0
M  V30 82 H 7.1635 -3.72577 0.0412756 0
M  V30 83 H 7.2765 -4.44731 1.78188 0
M  V30 84 H 5.6405 -2.39857 0.856778 0
M  V30 85 H 6.4235 -2.32424 2.52654 0
M  V30 86 N 8.8686 -0.792821 -1.36206 0
M  V30 87 C 9.8166 -0.181555 -2.3189 0
M  V30 88 C 10.8106 0.661025 -1.55971 0
M  V30 89 O 12.0166 0.555728 -1.71206 0
M  V30 90 H 8.3916 -0.0399382 -0.750939 0
M  V30 91 H 10.3626 -1.00394 -2.81005 0
M  V30 92 C 9.1116 0.666444 -3.41253 0
M  V30 93 H 8.4346 0.0274489 -3.99791 0
M  V30 94 H 9.8746 1.06076 -4.10517 0
M  V30 95 C 8.3336 1.82614 -2.83114 0
M  V30 96 O 8.8636 2.9229 -2.75553 0
M  V30 97 N 7.0696 1.63333 -2.40356 0
M  V30 98 H 6.6166 0.741217 -2.46706 0
M  V30 99 H 6.5746 2.41087 -2.01803 0
M  V30 100 N 10.3467 1.47872 -0.545128 0
M  V30 101 C 11.2937 2.29849 0.2093 0
M  V30 102 C 12.2637 1.38313 0.919707 0
M  V30 103 O 13.4487 1.67277 0.917772 0
M  V30 104 C 10.5887 3.22019 1.24088 0
M  V30 105 C 9.7017 4.2864 0.537778 0
M  V30 106 C 8.8367 5.07973 1.5536 0
M  V30 107 C 7.8757 6.06381 0.8348 0
M  V30 108 N 7.0127 6.78717 1.79688 0
M  V30 109 H 11.8527 2.93845 -0.49591 0
M  V30 110 H 9.3897 1.44848 -0.256389 0
M  V30 111 H 11.3477 3.73868 1.85144 0
M  V30 112 H 9.9777 2.59914 1.91428 0
M  V30 113 H 9.0297 3.7994 -0.187046 0
M  V30 114 H 10.3417 4.98793 -0.0258907 0
M  V30 115 H 9.4957 5.63912 2.23803 0
M  V30 116 H 8.2347 4.37693 2.15118 0
M  V30 117 H 7.2397 5.49631 0.136388 0
M  V30 118 H 8.4647 6.78665 0.24313 0
M  V30 119 H 6.4107 6.11177 2.38326 0
M  V30 120 H 6.3277 7.44998 1.28505 0
M  V30 121 H 7.5957 7.39237 2.47282 0
M  V30 122 N 11.8248 0.280983 1.55075 0
M  V30 123 C 13.0528 -0.337293 2.04132 0
M  V30 124 C 13.4678 -1.4903 1.15912 0
M  V30 125 O 12.8248 -1.81606 0.180459 0
M  V30 126 C 12.8758 -0.812706 3.52246 0
M  V30 127 O 12.5968 0.294387 4.3711 0
M  V30 128 C 14.0978 -1.4982 4.17216 0
M  V30 129 H 11.3178 -0.0761638 0.666663 0
M  V30 130 H 13.8618 0.414787 2.00249 0
M  V30 131 H 12.0168 -1.51486 3.56554 0
M  V30 132 H 12.4308 -0.0721325 5.2445 0
M  V30 133 H 13.9048 -1.7822 5.22438 0
M  V30 134 H 14.3818 -2.43168 3.65741 0
M  V30 135 H 14.9878 -0.839742 4.16927 0
M  V30 136 N 13.3029 -1.57598 0.00835791 0
M  V30 137 C 14.5279 -1.95617 -0.689103 0
M  V30 138 C 14.9529 -0.883753 -1.66046 0
M  V30 139 O 14.3109 0.157352 -1.80616 0
M  V30 140 C 14.3589 -3.32736 -1.38994 0
M  V30 141 O 13.4629 -3.27631 -2.50463 0
M  V30 142 H 12.8039 -0.638379 -0.182668 0
M  V30 143 H 15.3339 -2.045 0.064036 0
M  V30 144 H 15.3439 -3.68494 -1.75147 0
M  V30 145 H 14.0189 -4.1034 -0.677778 0
M  V30 146 H 12.5959 -3.03561 -2.16576 0
M  V30 147 N 14.781 0.264519 -1.55364 0
M  V30 148 C 16.028 0.994986 -1.7637 0
M  V30 149 C 16.356 1.85976 -0.5695 0
M  V30 150 O 15.611 1.90509 0.44776 0
M  V30 151 C 15.91 1.9004 -3.02687 0
M  V30 152 C 15.576 1.19243 -4.34847 0
M  V30 153 C 14.238 0.996709 -4.70764 0
M  V30 154 C 16.59 0.689296 -5.16622 0
M  V30 155 C 13.918 0.285261 -5.86006 0
M  V30 156 C 16.27 -0.00860079 -6.32599 0
M  V30 157 C 14.934 -0.215963 -6.67151 0
M  V30 158 H 14.204 0.364091 -0.645383 0
M  V30 159 H 16.851 0.266543 -1.89636 0
M  V30 160 H 15.156 2.69533 -2.84357 0
M  V30 161 H 16.853 2.46695 -3.16137 0
M  V30 162 H 13.443 1.3549 -4.06621 0
M  V30 163 H 17.627 0.828108 -4.89342 0
M  V30 164 H 12.883 0.113961 -6.11294 0
M  V30 165 H 17.057 -0.406186 -6.95214 0
M  V30 166 H 14.684 -0.769217 -7.56298 0
M  V30 167 N 16.2591 1.48442 0.529413 0
M  V30 168 C 17.2061 1.63007 1.63394 0
M  V30 169 C 18.1761 0.47212 1.59249 0
M  V30 170 O 19.3611 0.695673 1.77666 0
M  V30 171 C 16.5011 1.6763 3.01653 0
M  V30 172 C 15.6141 2.94535 3.16027 0
M  V30 173 C 14.7491 2.90316 4.44849 0
M  V30 174 C 13.7881 4.11923 4.52754 0
M  V30 175 N 12.9251 4.05777 5.72965 0
M  V30 176 H 17.7651 2.5733 1.50285 0
M  V30 177 H 15.3021 1.27613 0.731656 0
M  V30 178 H 17.2601 1.68292 3.81751 0
M  V30 179 H 15.8901 0.76797 3.13532 0
M  V30 180 H 14.9421 3.03615 2.29177 0
M  V30 181 H 16.2541 3.84512 3.17729 0
M  V30 182 H 15.4081 2.89382 5.33238 0
M  V30 183 H 14.1471 1.98068 4.45668 0
M  V30 184 H 13.1521 4.13131 3.62771 0
M  V30 185 H 14.3771 5.0533 4.53672 0
M  V30 186 H 12.3231 3.16351 5.74681 0
M  V30 187 H 12.2401 4.8946 5.76164 0
M  V30 188 H 13.5081 4.08904 6.6364 0
M  V30 189 N 17.7372 -0.778329 1.37039 0
M  V30 190 C 18.9862 -1.53189 1.3121 0
M  V30 191 C 19.2992 -1.95328 -0.103095 0
M  V30 192 O 20.5052 -2.70012 -0.283826 0
M  V30 193 C 18.9612 -2.76591 2.30272 0
M  V30 194 C 18.5692 -2.41577 3.77286 0
M  V30 195 C 20.3132 -3.5455 2.33441 0
M  V30 196 C 18.2202 -3.61441 4.68096 0
M  V30 197 H 17.1502 -0.5751 0.487622 0
M  V30 198 H 19.8012 -0.853101 1.62464 0
M  V30 199 H 18.1832 -3.46326 1.92027 0
M  V30 200 H 19.3572 -1.79668 4.2433 0
M  V30 201 H 17.6722 -1.76806 3.76999 0
M  V30 202 H 20.2692 -4.43628 2.98493 0
M  V30 203 H 20.6122 -3.93936 1.34611 0
M  V30 204 H 21.1452 -2.91805 2.7036 0
M  V30 205 H 17.8842 -3.27142 5.6803 0
M  V30 206 H 17.4042 -4.22478 4.25761 0
M  V30 207 H 19.0832 -4.28335 4.8491 0
M  V30 208 N 19.2153 -1.21501 -1.00376 0
M  V30 209 C 20.1783 -0.976927 -2.07337 0
M  V30 210 C 21.1783 0.0525322 -1.60714 0
M  V30 211 O 22.3683 -0.184869 -1.73216 0
M  V30 212 C 19.5003 -0.473423 -3.37597 0
M  V30 213 H 20.6933 -1.92587 -2.29892 0
M  V30 214 H 18.2463 -1.03217 -1.17371 0
M  V30 215 H 18.9813 0.480379 -3.20722 0
M  V30 216 H 18.7663 -1.216 -3.72768 0
M  V30 217 H 20.2563 -0.32675 -4.1632 0
M  V30 218 N 20.6934 1.19889 -1.02296 0
M  V30 219 C 21.9404 1.8942 -0.715972 0
M  V30 220 C 22.2684 1.79251 0.754944 0
M  V30 221 O 21.5234 1.17526 1.56481 0
M  V30 222 C 21.8224 3.39883 -1.10518 0
M  V30 223 C 21.4884 3.70254 -2.57337 0
M  V30 224 C 20.1504 3.78254 -2.97452 0
M  V30 225 C 22.5024 3.84052 -3.52354 0
M  V30 226 C 19.8304 3.97514 -4.31509 0
M  V30 227 C 22.1824 4.04824 -4.86108 0
M  V30 228 C 20.8464 4.11054 -5.25919 0
M  V30 229 H 20.1164 0.693138 -0.261993 0
M  V30 230 H 22.7634 1.42012 -1.28472 0
M  V30 231 H 21.0684 3.8915 -0.454953 0
M  V30 232 H 22.7654 3.9199 -0.845261 0
M  V30 233 H 19.3554 3.64632 -2.25258 0
M  V30 234 H 23.5394 3.77221 -3.22518 0
M  V30 235 H 18.7954 4.00574 -4.61898 0
M  V30 236 H 22.9694 4.14442 -5.59653 0
M  V30 237 H 20.5964 4.2573 -6.29808 0
M  V30 238 N 22.1715 0.800033 1.35784 0
M  V30 239 C 23.4205 0.37387 1.98205 0
M  V30 240 C 23.7335 -1.06302 1.64193 0
M  V30 241 O 24.9395 -1.59198 2.19928 0
M  V30 242 C 23.3955 0.617532 3.54562 0
M  V30 243 C 23.0035 2.06654 3.9749 0
M  V30 244 C 24.7475 0.256401 4.23725 0
M  V30 245 C 22.6545 2.2563 5.46667 0
M  V30 246 H 21.5845 0.136055 0.741623 0
M  V30 247 H 24.2355 0.983166 1.54939 0
M  V30 248 H 22.6175 -0.0616248 3.95952 0
M  V30 249 H 23.7915 2.78296 3.67271 0
M  V30 250 H 22.1065 2.38691 3.41197 0
M  V30 251 H 24.7035 0.376318 5.33374 0
M  V30 252 H 25.0465 -0.796692 4.08606 0
M  V30 253 H 25.5795 0.889214 3.87734 0
M  V30 254 H 22.3185 3.2936 5.66747 0
M  V30 255 H 21.8385 1.58504 5.78478 0
M  V30 256 H 23.5175 2.06861 6.1304 0
M  V30 257 N 23.6496 -1.47581 0.552962 0
M  V30 258 C 24.5816 -2.27997 -0.234533 0
M  V30 259 C 25.5946 -1.36753 -0.883321 0
M  V30 260 O 26.7836 -1.61612 -0.757889 0
M  V30 261 C 23.8836 -3.10879 -1.34935 0
M  V30 262 C 23.0566 -4.30056 -0.798158 0
M  V30 263 C 22.1156 -4.94567 -1.79694 0
M  V30 264 O 21.1416 -5.53087 -1.34474 0
M  V30 265 N 22.3436 -4.88878 -3.13015 0
M  V30 266 H 25.1086 -2.96222 0.455255 0
M  V30 267 H 22.6696 -1.57163 0.388761 0
M  V30 268 H 24.6616 -3.50903 -2.01616 0
M  V30 269 H 23.2316 -2.44924 -1.94244 0
M  V30 270 H 22.4516 -3.94174 0.0453079 0
M  V30 271 H 23.7396 -5.07152 -0.409173 0
M  V30 272 H 23.1376 -4.42526 -3.52402 0
M  V30 273 H 21.6946 -5.32934 -3.75266 0
M  V30 274 N 25.1277 -0.289203 -1.54924 0
M  V30 275 C 26.0907 0.579144 -2.21762 0
M  V30 276 C 27.0907 1.07047 -1.1999 0
M  V30 277 O 28.2807 0.968384 -1.44803 0
M  V30 278 C 25.4127 1.80055 -2.8947 0
M  V30 279 H 26.6057 -0.00464908 -2.999 0
M  V30 280 H 24.1587 -0.0399306 -1.56249 0
M  V30 281 H 24.8937 2.42449 -2.15381 0
M  V30 282 H 24.6787 1.45602 -3.64064 0
M  V30 283 H 26.1687 2.41773 -3.40493 0
M  V30 284 N 26.6058 1.57591 -0.0167156 0
M  V30 285 C 28.0218 1.55946 0.339557 0
M  V30 286 C 28.2218 1.02109 1.73713 0
M  V30 287 O 27.2778 0.662303 2.43659 0
M  V30 288 C 28.5908 3.00037 0.199499 0
M  V30 289 C 30.1388 3.11805 0.273193 0
M  V30 290 C 30.6138 4.57713 0.162068 0
M  V30 291 N 32.1048 4.6268 0.219444 0
M  V30 292 C 32.8398 5.73185 0.157054 0
M  V30 293 N 32.3358 6.92786 0.0442936 0
M  V30 294 N 34.1288 5.61707 0.21014 0
M  V30 295 H 26.2798 1.90921 -0.930758 0
M  V30 296 H 28.5428 0.877674 -0.358319 0
M  V30 297 H 28.2488 3.4333 -0.76273 0
M  V30 298 H 28.1228 3.64387 0.974786 0
M  V30 299 H 30.5098 2.68433 1.22587 0
M  V30 300 H 30.5908 2.50201 -0.532256 0
M  V30 301 H 30.2348 5.01763 -0.78714 0
M  V30 302 H 30.1648 5.17283 0.986222 0
M  V30 303 H 32.6558 3.76649 0.307246 0
M  V30 304 H 32.9688 7.728 0.00304069 0
M  V30 305 H 31.3138 6.94999 0.00968457 0
M  V30 306 H 34.5048 4.6716 0.296546 0
M  V30 307 H 34.6778 6.47807 0.158054 0
M  V30 308 N 28.0839 -0.256276 1.55502 0
M  V30 309 C 29.3299 -0.982884 1.78076 0
M  V30 310 C 29.6849 -1.83319 0.584109 0
M  V30 311 O 28.9779 -1.86875 -0.422877 0
M  V30 312 C 29.1719 -1.88432 3.03691 0
M  V30 313 C 29.0009 -1.12276 4.35459 0
M  V30 314 C 27.7709 -0.831647 4.98409 0
M  V30 315 C 29.9689 -0.504933 5.11815 0
M  V30 316 N 27.9509 -0.0450423 6.13883 0
M  V30 317 C 29.3219 0.146696 6.19826 0
M  V30 318 C 31.3769 -0.414455 4.96172 0
M  V30 319 C 30.0799 0.880103 7.13895 0
M  V30 320 C 32.1059 0.305398 5.90611 0
M  V30 321 C 31.4679 0.945701 6.98023 0
M  V30 322 H 27.5669 -0.341084 0.703694 0
M  V30 323 H 30.1509 -0.256909 1.92998 0
M  V30 324 H 28.3219 -2.58241 2.90114 0
M  V30 325 H 30.0539 -2.54579 3.14598 0
M  V30 326 H 26.8089 -1.14111 4.59647 0
M  V30 327 H 27.2329 0.336079 6.76165 0
M  V30 328 H 31.8749 -0.895163 4.13215 0
M  V30 329 H 29.5929 1.37244 7.9636 0
M  V30 330 H 33.1789 0.375946 5.80584 0
M  V30 331 H 32.0589 1.49383 7.6984 0
M  V30 332 N 29.562 -1.4872 -0.521534 0
M  V30 333 C 30.512 -1.60269 -1.62166 0
M  V30 334 C 31.496 -0.45935 -1.54204 0
M  V30 335 O 32.688 -0.711241 -1.62081 0
M  V30 336 C 29.817 -1.65344 -3.00859 0
M  V30 337 C 28.903 -2.85187 -3.13894 0
M  V30 338 N 29.294 -4.09509 -2.96877 0
M  V30 339 C 27.592 -2.82695 -3.44963 0
M  V30 340 C 28.293 -4.89959 -3.13552 0
M  V30 341 N 27.269 -4.22934 -3.41508 0
M  V30 342 H 31.071 -2.5413 -1.47632 0
M  V30 343 H 28.585 -1.45209 -0.727194 0
M  V30 344 H 30.582 -1.71713 -3.79895 0
M  V30 345 H 29.242 -0.726058 -3.16478 0
M  V30 346 H 30.253 -4.39814 -2.73467 0
M  V30 347 H 26.93 -1.99249 -3.66887 0
M  V30 348 H 28.32 -5.98654 -3.05061 0
M  V30 349 N 31.0401 0.771051 -1.3745 0
M  V30 350 C 32.0031 1.86598 -1.33093 0
M  V30 351 C 33.0031 1.59076 -0.234845 0
M  V30 352 O 34.1931 1.67145 -0.490732 0
M  V30 353 C 31.3251 3.23747 -1.06773 0
M  V30 354 H 32.5181 1.91873 -2.30488 0
M  V30 355 H 30.0711 0.970876 -1.2249 0
M  V30 356 H 30.8061 3.24148 -0.099129 0
M  V30 357 H 30.5911 3.45115 -1.86112 0
M  V30 358 H 32.0811 4.03824 -1.06377 0
M  V30 359 N 32.5182 1.22032 0.997298 0
M  V30 360 C 33.7952 0.950823 1.70935 0
M  V30 361 C 34.1752 -0.535292 2.042 0
M  V30 362 O 33.5232 -1.50217 1.72183 0
M  V30 363 C 33.7332 1.84386 2.96315 0
M  V30 364 C 35.0812 2.09732 3.69185 0
M  V30 365 O 36.1052 1.81798 3.06314 0
M  V30 366 O 34.9642 2.57018 4.82291 0
M  V30 367 H 32.0582 0.357204 0.745878 0
M  V30 368 H 34.6042 1.32997 1.05404 0
M  V30 369 H 33.3762 2.84928 2.68201 0
M  V30 370 H 32.9992 1.46602 3.69586 0
M  V30 371 N 33.9963 -1.19345 1.0293 0
M  V30 372 C 35.2453 -1.88363 0.721256 0
M  V30 373 C 35.5583 -1.80514 -0.753254 0
M  V30 374 O 36.7643 -2.44788 -1.17436 0
M  V30 375 C 35.2203 -3.37872 1.23978 0
M  V30 376 C 34.8283 -3.54278 2.74211 0
M  V30 377 C 36.5723 -4.12365 1.00775 0
M  V30 378 C 34.4793 -4.97682 3.19479 0
M  V30 379 H 33.4093 -0.705484 0.266098 0
M  V30 380 H 36.0603 -1.34928 1.24365 0
M  V30 381 H 34.4423 -3.90707 0.6453 0
M  V30 382 H 35.6163 -3.11769 3.39318 0
M  V30 383 H 33.9313 -2.93174 2.95699 0
M  V30 384 H 36.5283 -5.18119 1.32123 0
M  V30 385 H 36.8713 -4.16263 -0.0554308 0
M  V30 386 H 37.4043 -3.65668 1.56625 0
M  V30 387 H 34.1433 -4.98945 4.25128 0
M  V30 388 H 33.6633 -5.4095 2.591 0
M  V30 389 H 35.3423 -5.66337 3.12845 0
M  V30 390 N 35.4744 -0.807222 -1.35358 0
M  V30 391 C 36.7204 -0.388463 -1.99045 0
M  V30 392 C 37.0534 1.04184 -1.63888 0
M  V30 393 O 36.3284 1.72292 -0.902535 0
M  V30 394 C 36.6114 -0.572783 -3.55515 0
M  V30 395 C 36.4644 -2.04807 -4.00468 0
M  V30 396 C 37.7834 0.00114064 -4.401 0
M  V30 397 H 34.9024 -0.142619 -0.723069 0
M  V30 398 H 37.5444 -1.01687 -1.60498 0
M  V30 399 H 35.6944 -0.0378425 -3.88482 0
M  V30 400 H 37.3664 -2.64544 -3.77908 0
M  V30 401 H 35.6094 -2.54427 -3.51353 0
M  V30 402 H 36.2804 -2.12792 -5.09337 0
M  V30 403 H 38.7564 -0.455716 -4.13597 0
M  V30 404 H 37.6324 -0.157737 -5.48673 0
M  V30 405 H 37.8934 1.09488 -4.28328 0
M  V30 406 N 36.9525 1.47285 -0.560781 0
M  V30 407 C 38.2295 1.9558 0.0277798 0
M  V30 408 C 38.6095 1.5034 1.48192 0
M  V30 409 O 37.9575 0.743882 2.16052 0
M  V30 410 C 38.1675 3.48789 -0.121418 0
M  V30 411 C 39.5155 4.24594 0.0220912 0
M  V30 412 O 40.5395 3.56166 -0.0491439 0
M  V30 413 O 39.3985 5.46217 0.175958 0
M  V30 414 H 36.4925 0.824663 0.0621342 0
M  V30 415 H 39.0385 1.5767 -0.627556 0
M  V30 416 H 37.8105 3.74533 -1.13316 0
M  V30 417 H 37.4335 3.93473 0.571366 0
M  V30 418 N 38.4306 0.297415 1.54768 0
M  V30 419 C 39.3406 -0.58983 2.27064 0
M  V30 420 C 40.3566 -1.15144 1.30453 0
M  V30 421 O 41.5326 -1.17699 1.63428 0
M  V30 422 C 38.5976 -1.74714 2.9946 0
M  V30 423 C 37.6586 -1.21997 4.11601 0
M  V30 424 C 36.8916 -2.32212 4.80535 0
M  V30 425 O 37.1146 -3.52036 4.48806 0
M  V30 426 O 36.0486 -1.99106 5.68014 0
M  V30 427 H 39.8746 -0.00348199 3.037 0
M  V30 428 H 37.4596 0.0640035 1.49263 0
M  V30 429 H 39.3416 -2.42147 3.44881 0
M  V30 430 H 38.0166 -2.32016 2.25722 0
M  V30 431 H 36.9236 -0.511458 3.70587 0
M  V30 432 H 38.2566 -0.692419 4.87305 0
M  V30 433 N 39.9087 -1.5758 0.0250728 0
M  V30 434 C 40.8717 -2.08896 -0.943139 0
M  V30 435 C 41.8717 -1.00321 -1.25668 0
M  V30 436 O 43.0617 -1.26495 -1.19769 0
M  V30 437 C 40.1937 -2.55143 -2.26086 0
M  V30 438 H 41.3867 -2.95723 -0.498775 0
M  V30 439 H 38.9397 -1.54703 -0.222888 0
M  V30 440 H 39.6747 -1.71633 -2.75159 0
M  V30 441 H 39.4597 -3.34461 -2.04641 0
M  V30 442 H 40.9497 -2.95083 -2.95492 0
M  V30 443 N 41.3868 0.248026 -1.55636 0
M  V30 444 C 42.8028 0.596483 -1.48035 0
M  V30 445 C 43.0028 1.88386 -0.715039 0
M  V30 446 O 42.0588 2.51319 -0.243944 0
M  V30 447 C 43.3718 0.700258 -2.92433 0
M  V30 448 C 44.9198 0.792659 -3.02797 0
M  V30 449 C 45.3948 0.928005 -4.485 0
M  V30 450 N 46.8858 0.992903 -4.52433 0
M  V30 451 C 47.6208 1.11687 -5.62418 0
M  V30 452 N 47.1168 1.20645 -6.82214 0
M  V30 453 N 48.9098 1.14994 -5.50212 0
M  V30 454 H 41.0608 -0.597109 -2.03834 0
M  V30 455 H 43.3238 -0.205925 -0.925364 0
M  V30 456 H 43.0298 -0.175658 -3.51261 0
M  V30 457 H 42.9038 1.57255 -3.42857 0
M  V30 458 H 45.2908 1.65903 -2.4405 0
M  V30 459 H 45.3718 -0.104762 -2.55585 0
M  V30 460 H 45.0158 0.0661971 -5.07857 0
M  V30 461 H 44.9458 1.84045 -4.93391 0
M  V30 462 H 47.4368 0.935064 -3.66149 0
M  V30 463 H 47.7498 1.30008 -7.61786 0
M  V30 464 H 46.0948 1.17605 -6.84977 0
M  V30 465 H 49.2858 1.07643 -4.55555 0
M  V30 466 H 49.4588 1.24311 -6.35965 0
M  V30 467 N 42.8649 1.48995 0.513639 0
M  V30 468 C 43.8119 1.6473 1.61656 0
M  V30 469 C 44.7819 0.488984 1.58739 0
M  V30 470 O 45.9669 0.714478 1.76918 0
M  V30 471 C 43.1069 1.7082 2.99858 0
M  V30 472 C 42.2199 2.9787 3.12885 0
M  V30 473 C 41.3549 2.95017 4.41744 0
M  V30 474 C 40.3939 4.16702 4.48359 0
M  V30 475 N 39.5309 4.11832 5.68629 0
M  V30 476 H 44.3709 2.58909 1.47547 0
M  V30 477 H 41.9079 1.28382 0.71808 0
M  V30 478 H 43.8659 1.72331 3.79944 0
M  V30 479 H 42.4959 0.801181 3.12699 0
M  V30 480 H 41.5479 3.06029 2.25944 0
M  V30 481 H 42.8599 3.8786 3.13633 0
M  V30 482 H 42.0139 2.95021 5.30139 0
M  V30 483 H 40.7529 2.02784 4.43542 0
M  V30 484 H 39.7579 4.16955 3.58369 0
M  V30 485 H 40.9829 5.10113 4.48287 0
M  V30 486 H 38.9289 3.22428 5.71293 0
M  V30 487 H 38.8459 4.95543 5.7094 0
M  V30 488 H 40.1139 4.1592 6.59266 0
M  V30 489 N 44.343 -0.763751 1.37857 0
M  V30 490 C 45.568 -1.55805 1.36893 0
M  V30 491 C 45.993 -1.88054 -0.0416135 0
M  V30 492 O 45.351 -1.49825 -1.02089 0
M  V30 493 C 45.399 -2.84012 2.22192 0
M  V30 494 O 44.503 -3.78732 1.63204 0
M  V30 495 H 43.844 -0.471638 0.46739 0
M  V30 496 H 46.374 -0.944657 1.81487 0
M  V30 497 H 46.384 -3.33037 2.35691 0
M  V30 498 H 45.059 -2.59869 3.24716 0
M  V30 499 H 43.636 -3.37402 1.58791 0
M  V30 500 N 45.8211 -1.22559 -0.990812 0
M  V30 501 C 47.0681 -1.05141 -1.73065 0
M  V30 502 C 47.3961 0.413191 -1.9006 0
M  V30 503 O 46.6511 1.32257 -1.44245 0
M  V30 504 C 46.9501 -1.71011 -3.13831 0
M  V30 505 C 46.6161 -3.20911 -3.16745 0
M  V30 506 C 45.2781 -3.61812 -3.17247 0
M  V30 507 C 47.6301 -4.16846 -3.12872 0
M  V30 508 C 44.9581 -4.97127 -3.1158 0
M  V30 509 C 47.3101 -5.5214 -3.08746 0
M  V30 510 C 45.9741 -5.92419 -3.07565 0
M  V30 511 H 45.2441 -0.384738 -0.633291 0
M  V30 512 H 47.8911 -1.5235 -1.16025 0
M  V30 513 H 46.1961 -1.16133 -3.74193 0
M  V30 514 H 47.8931 -1.55023 -3.69823 0
M  V30 515 H 44.4831 -2.88344 -3.17105 0
M  V30 516 H 48.6671 -3.86263 -3.11632 0
M  V30 517 H 43.9231 -5.27562 -3.09012 0
M  V30 518 H 48.0971 -6.26201 -3.04705 0
M  V30 519 H 45.7241 -6.97236 -3.02929 0
M  V30 520 N 47.2992 1.18797 -1.03562 0
M  V30 521 C 48.5452 1.8893 -0.737113 0
M  V30 522 C 48.8782 1.79837 0.732956 0
M  V30 523 O 48.1532 1.19525 1.5344 0
M  V30 524 C 48.4362 3.39607 -1.19745 0
M  V30 525 C 48.2892 3.57537 -2.72924 0
M  V30 526 C 49.6082 4.33069 -0.783526 0
M  V30 527 H 46.7272 0.686057 -0.269249 0
M  V30 528 H 49.3692 1.39797 -1.28673 0
M  V30 529 H 47.5192 3.81583 -0.729855 0
M  V30 530 H 49.1912 3.24688 -3.27682 0
M  V30 531 H 47.4342 3.00363 -3.12993 0
M  V30 532 H 48.1052 4.63238 -3.00191 0
M  V30 533 H 50.5812 3.98846 -1.18581 0
M  V30 534 H 49.4572 5.3707 -1.13343 0
M  V30 535 H 49.7182 4.40986 0.313681 0
M  V30 536 N 48.7773 0.814389 1.34928 0
M  V30 537 C 49.7403 0.235759 2.27984 0
M  V30 538 C 50.7403 -0.581412 1.49921 0
M  V30 539 O 51.9303 -0.398758 1.69575 0
M  V30 540 C 49.0623 -0.670433 3.34242 0
M  V30 541 H 50.2553 1.05659 2.80671 0
M  V30 542 H 47.8083 0.585614 1.44915 0
M  V30 543 H 48.5433 -1.51466 2.86755 0
M  V30 544 H 48.3283 -0.0860822 3.92005 0
M  V30 545 H 49.8183 -1.06935 4.03676 0
M  V30 546 N 50.2554 -1.46986 0.568584 0
M  V30 547 C 51.1654 -2.33942 -0.17555 0
M  V30 548 C 52.1814 -1.48891 -0.90041 0
M  V30 549 O 53.3574 -1.81794 -0.86676 0
M  V30 550 C 50.4224 -3.25811 -1.18524 0
M  V30 551 C 49.4834 -4.26757 -0.466582 0
M  V30 552 C 48.7164 -5.14236 -1.42817 0
M  V30 553 O 48.9394 -5.04379 -2.66379 0
M  V30 554 O 47.8734 -5.94412 -0.946453 0
M  V30 555 H 51.6994 -2.98896 0.538036 0
M  V30 556 H 49.2844 -1.4573 0.329097 0
M  V30 557 H 51.1664 -3.82527 -1.76779 0
M  V30 558 H 49.8414 -2.63471 -1.88055 0
M  V30 559 H 48.7484 -3.73769 0.157451 0
M  V30 560 H 50.0814 -4.91843 0.187485 0
M  V30 561 N 51.7335 -0.305618 -1.54608 0
M  V30 562 C 52.6635 0.561482 -2.26649 0
M  V30 563 C 53.6445 1.13415 -1.26772 0
M  V30 564 O 54.8295 1.16262 -1.55553 0
M  V30 565 C 51.9595 1.73122 -3.01075 0
M  V30 566 C 50.9135 1.2887 -4.08138 0
M  V30 567 C 50.2395 2.54396 -4.70305 0
M  V30 568 C 51.5395 0.416578 -5.20636 0
M  V30 569 H 53.2335 -0.0393902 -2.99374 0
M  V30 570 H 50.7795 -0.020385 -1.43986 0
M  V30 571 H 52.7325 2.34396 -3.50195 0
M  V30 572 H 51.4565 2.3584 -2.25936 0
M  V30 573 H 50.1155 0.698991 -3.59875 0
M  V30 574 H 49.7635 3.15439 -3.918 0
M  V30 575 H 49.4635 2.25486 -5.42614 0
M  V30 576 H 50.9875 3.16464 -5.2219 0
M  V30 577 H 52.4015 0.935116 -5.65622 0
M  V30 578 H 50.7985 0.221046 -5.99693 0
M  V30 579 H 51.8685 -0.557162 -4.81688 0
M  V30 580 N 53.2116 1.57565 -0.0334293 0
M  V30 581 C 54.1746 2.09393 0.932048 0
M  V30 582 C 55.1746 1.00986 1.25134 0
M  V30 583 O 56.3646 1.27129 1.19096 0
M  V30 584 C 53.4966 2.56338 2.2473 0
M  V30 585 H 54.6896 2.95984 0.483085 0
M  V30 586 H 52.2426 1.54819 0.21468 0
M  V30 587 H 52.9776 1.7309 2.74245 0
M  V30 588 H 52.7626 3.35542 2.02865 0
M  V30 589 H 54.2526 2.96646 2.93923 0
M  V30 590 N 54.6897 -0.239769 1.55765 0
M  V30 591 C 55.6527 -1.28038 1.90103 0
M  V30 592 C 56.6527 -1.40723 0.778055 0
M  V30 593 O 57.8427 -1.39301 1.04599 0
M  V30 594 C 54.9747 -2.65702 2.13577 0
M  V30 595 H 56.1677 -0.988048 2.83157 0
M  V30 596 H 53.7207 -0.479382 1.48767 0
M  V30 597 H 54.4557 -3.00063 1.23015 0
M  V30 598 H 54.2407 -2.57875 2.95369 0
M  V30 599 H 55.7307 -3.40828 2.41301 0
M  V30 600 N 56.1678 -1.49265 -0.50573 0
M  V30 601 C 57.1148 -1.65585 -1.6078 0
M  V30 602 C 58.0848 -0.497396 -1.58478 0
M  V30 603 O 59.2698 -0.72385 -1.76536 0
M  V30 604 C 56.4098 -1.72408 -2.98948 0
M  V30 605 C 55.5228 -2.99525 -3.11301 0
M  V30 606 C 54.6578 -2.97356 -4.40174 0
M  V30 607 C 53.6968 -4.19074 -4.46143 0
M  V30 608 N 52.8338 -4.14841 -5.66437 0
M  V30 609 H 57.6738 -2.59688 -1.46172 0
M  V30 610 H 55.2108 -1.28761 -0.711261 0
M  V30 611 H 57.1688 -1.74344 -3.79025 0
M  V30 612 H 55.7988 -0.817753 -3.1227 0
M  V30 613 H 54.8508 -3.07222 -2.24318 0
M  V30 614 H 56.1628 -3.89518 -3.11572 0
M  V30 615 H 55.3168 -2.97829 -5.28567 0
M  V30 616 H 54.0558 -2.05133 -4.42461 0
M  V30 617 H 53.0608 -4.1885 -3.56153 0
M  V30 618 H 54.2858 -5.12483 -4.45575 0
M  V30 619 H 52.2318 -3.25453 -5.69575 0
M  V30 620 H 52.1488 -4.98564 -5.68304 0
M  V30 621 H 53.4168 -4.1941 -6.57051 0
M  V30 622 N 57.6459 0.756429 -1.3826 0
M  V30 623 C 58.8739 1.54565 -1.3754 0
M  V30 624 C 59.2889 1.88767 0.0355331 0
M  V30 625 O 58.6459 1.52572 1.0014 0
M  V30 626 C 58.6969 2.84654 -2.22833 0
M  V30 627 O 58.4179 2.51912 -3.5843 0
M  V30 628 C 59.9189 3.78807 -2.30261 0
M  V30 629 H 57.1389 0.478353 -0.470553 0
M  V30 630 H 59.6829 0.936381 -1.81803 0
M  V30 631 H 57.8379 3.41965 -1.8204 0
M  V30 632 H 58.2519 3.35325 -4.03308 0
M  V30 633 H 59.7259 4.67045 -2.94233 0
M  V30 634 H 60.2029 4.19038 -1.31545 0
M  V30 635 H 60.8089 3.2742 -2.71433 0
M  V30 636 N 59.124 1.23083 0.984299 0
M  V30 637 C 60.372 1.05848 1.72165 0
M  V30 638 C 60.693 -0.406049 1.90726 0
M  V30 639 O 59.963 -1.29139 1.47309 0
M  V30 640 H 58.543 0.388685 0.637913 0
M  V30 641 H 61.205 1.54736 1.18503 0
M  V30 642 H 60.301 1.54327 2.71274 0
M  V30 643 N 60.6021 -1.18246 1.0419 0
M  V30 644 C 61.8501 -1.87886 0.744543 0
M  V30 645 C 62.1711 -1.8082 -0.730006 0
M  V30 646 O 61.4411 -1.22736 -1.52685 0
M  V30 647 H 60.0211 -0.695556 0.272417 0
M  V30 648 H 62.6831 -1.43494 1.31892 0
M  V30 649 H 61.7791 -2.9389 1.05049 0
M  V30 650 N 62.0802 -0.821533 -1.34494 0
M  V30 651 C 63.3052 -0.420873 -2.03085 0
M  V30 652 C 63.7302 0.964915 -1.61465 0
M  V30 653 O 63.0882 1.62763 -0.798607 0
M  V30 654 C 63.1362 -0.529414 -3.56693 0
M  V30 655 O 62.2402 0.451302 -4.09923 0
M  V30 656 H 61.5812 -0.173489 -0.640935 0
M  V30 657 H 64.1112 -1.11157 -1.71771 0
M  V30 658 H 64.1212 -0.404671 -4.05988 0
M  V30 659 H 62.7962 -1.54014 -3.86332 0
M  V30 660 H 61.3732 0.285558 -3.71805 0
M  V30 661 N 63.5583 1.46682 -0.576371 0
M  V30 662 C 64.8043 2.02712 -0.0596221 0
M  V30 663 C 65.1373 1.44765 1.29448 0
M  V30 664 O 64.4123 0.610355 1.84675 0
M  V30 665 C 64.6953 3.60098 0.0129503 0
M  V30 666 C 64.5483 4.28441 -1.3696 0
M  V30 667 C 65.8673 4.34224 0.71678 0
M  V30 668 H 62.9863 0.736637 -0.0231407 0
M  V30 669 H 65.6283 1.74898 -0.742351 0
M  V30 670 H 63.7783 3.83926 0.594378 0
M  V30 671 H 65.4503 4.15896 -1.9957 0
M  V30 672 H 63.6933 3.8805 -1.93907 0
M  V30 673 H 64.3643 5.3716 -1.27135 0
M  V30 674 H 66.8403 4.15503 0.222908 0
M  V30 675 H 65.7163 5.43936 0.73657 0
M  V30 676 H 65.9773 4.04823 1.77682 0
M  V30 677 N 65.0364 0.313813 1.54444 0
M  V30 678 C 65.9464 -0.565714 2.27677 0
M  V30 679 C 66.9624 -1.13754 1.31666 0
M  V30 680 O 68.1384 -1.15959 1.64668 0
M  V30 681 C 65.2034 -1.71528 3.01296 0
M  V30 682 C 64.2644 -1.17624 4.12872 0
M  V30 683 C 63.4974 -2.27102 4.8297 0
M  V30 684 O 63.7204 -3.47256 4.52514 0
M  V30 685 O 62.6544 -1.9307 5.70094 0
M  V30 686 H 66.4804 0.0287296 3.03686 0
M  V30 687 H 64.0654 0.0798312 1.49187 0
M  V30 688 H 65.9474 -2.38476 3.4743 0
M  V30 689 H 64.6224 -2.29608 2.2817 0
M  V30 690 H 63.5294 -0.472124 3.71109 0
M  V30 691 H 64.8624 -0.640695 4.88012 0
M  V30 692 N 66.5145 -1.57545 0.0417849 0
M  V30 693 C 67.7605 -1.92601 -0.635021 0
M  V30 694 C 68.0935 -0.919627 -1.71045 0
M  V30 695 O 67.3685 0.0557892 -1.9442 0
M  V30 696 C 67.6515 -3.38085 -1.23979 0
M  V30 697 C 67.5045 -4.49467 -0.173057 0
M  V30 698 C 68.8235 -3.83776 -2.15416 0
M  V30 699 H 65.9425 -0.700397 -0.229374 0
M  V30 700 H 68.5845 -1.89728 0.101633 0
M  V30 701 H 66.7345 -3.40664 -1.86762 0
M  V30 702 H 68.4065 -4.59018 0.458312 0
M  V30 703 H 66.6495 -4.30909 0.499996 0
M  V30 704 H 67.3205 -5.48323 -0.636054 0
M  V30 705 H 69.7965 -3.83013 -1.62605 0
M  V30 706 H 68.6725 -4.8624 -2.54679 0
M  V30 707 H 68.9335 -3.19998 -3.05047 0
M  V30 708 N 67.9926 0.231505 -1.5589 0
M  V30 709 C 68.9026 1.308 -1.94752 0
M  V30 710 C 69.9186 1.51826 -0.849989 0
M  V30 711 O 71.0946 1.6515 -1.15271 0
M  V30 712 C 68.1596 2.63968 -2.24771 0
M  V30 713 C 67.2206 2.51331 -3.48039 0
M  V30 714 C 66.4536 3.78148 -3.76616 0
M  V30 715 O 66.6766 4.80722 -3.07022 0
M  V30 716 O 65.6106 3.75857 -4.70123 0
M  V30 717 H 69.4366 1.0083 -2.86474 0
M  V30 718 H 67.0216 0.433547 -1.42971 0
M  V30 719 H 68.9036 3.42633 -2.45318 0
M  V30 720 H 67.5786 2.9364 -1.36225 0
M  V30 721 H 66.4856 1.709 -3.32782 0
M  V30 722 H 67.8186 2.26601 -4.36936 0
M  V30 723 N 69.4707 1.49531 0.497807 0
M  V30 724 C 70.7197 1.58426 1.24837 0
M  V30 725 C 71.0327 0.277643 1.93619 0
M  V30 726 O 72.2387 0.24517 2.70391 0
M  V30 727 C 70.6947 2.79538 2.26686 0
M  V30 728 C 70.3027 4.16971 1.63828 0
M  V30 729 C 72.0467 2.97764 3.0255 0
M  V30 730 C 69.9537 5.29301 2.63807 0
M  V30 731 H 68.8837 0.58989 0.469623 0
M  V30 732 H 71.5347 1.75923 0.521857 0
M  V30 733 H 69.9167 2.55542 3.02514 0
M  V30 734 H 71.0907 4.51116 0.939711 0
M  V30 735 H 69.4057 4.04129 1.00342 0
M  V30 736 H 72.0027 3.78856 3.77323 0
M  V30 737 H 72.3457 2.08448 3.60354 0
M  V30 738 H 72.8787 3.21815 2.33838 0
M  V30 739 H 69.6177 6.20687 2.10779 0
M  V30 740 H 69.1377 4.99606 3.31894 0
M  V30 741 H 70.8167 5.58768 3.2617 0
M  V30 742 N 70.9488 -0.749086 1.3866 0
M  V30 743 C 72.1958 -1.50833 1.35114 0
M  V30 744 C 72.5238 -1.94415 -0.0574049 0
M  V30 745 O 71.7788 -1.66065 -1.03541 0
M  V30 746 C 72.0778 -2.7712 2.25697 0
M  V30 747 C 71.7438 -2.52477 3.73585 0
M  V30 748 C 70.4058 -2.45466 4.13884 0
M  V30 749 C 72.7578 -2.31066 4.67181 0
M  V30 750 C 70.0858 -2.15064 5.45861 0
M  V30 751 C 72.4378 -2.02183 5.9942 0
M  V30 752 C 71.1018 -1.93631 6.38798 0
M  V30 753 H 70.3718 -0.551936 0.494416 0
M  V30 754 H 73.0188 -0.860979 1.71054 0
M  V30 755 H 71.3238 -3.46528 1.82827 0
M  V30 756 H 73.0208 -3.35096 2.20254 0
M  V30 757 H 69.6108 -2.58807 3.41638 0
M  V30 758 H 73.7948 -2.35459 4.3689 0
M  V30 759 H 69.0508 -2.06954 5.75308 0
M  V30 760 H 73.2248 -1.8462 6.71482 0
M  V30 761 H 70.8518 -1.69839 7.40985 0
M  V30 762 N 72.4269 -1.23603 -0.977757 0
M  V30 763 C 73.7039 -0.977897 -1.69401 0
M  V30 764 C 74.0839 0.502738 -2.05026 0
M  V30 765 O 73.4319 1.47459 -1.74551 0
M  V30 766 C 73.6419 -1.89077 -2.93345 0
M  V30 767 C 74.9899 -2.15579 -3.65802 0
M  V30 768 O 76.0139 -1.86648 -3.03383 0
M  V30 769 O 74.8729 -2.64658 -4.78141 0
M  V30 770 H 71.9669 -0.369025 -0.740101 0
M  V30 771 H 74.5129 -1.34657 -1.03274 0
M  V30 772 H 73.2849 -2.89158 -2.63634 0
M  V30 773 H 72.9079 -1.52463 -3.67207 0
M  V30 774 N 73.905 1.17692 -1.04816 0
M  V30 775 C 75.151 1.88137 -0.75711 0
M  V30 776 C 75.484 1.80604 0.713841 0
M  V30 777 O 74.759 1.21146 1.52164 0
M  V30 778 C 75.042 3.38318 -1.2334 0
M  V30 779 C 74.895 3.54622 -2.76701 0
M  V30 780 C 76.214 4.32214 -0.829415 0
M  V30 781 H 73.333 0.683163 -0.27651 0
M  V30 782 H 75.975 1.38424 -1.30149 0
M  V30 783 H 74.125 3.80787 -0.770286 0
M  V30 784 H 75.797 3.21194 -3.31107 0
M  V30 785 H 74.04 2.97026 -3.16161 0
M  V30 786 H 74.711 4.60028 -3.05088 0
M  V30 787 H 77.187 3.97565 -1.22805 0
M  V30 788 H 76.063 5.35838 -1.19033 0
M  V30 789 H 76.324 4.41294 0.266891 0
M  V30 790 N 75.3831 0.828654 1.34056 0
M  V30 791 C 76.7941 0.477534 1.8049 0
M  V30 792 C 77.1451 -1.00258 1.6865 0
M  V30 793 O 76.2701 -1.78057 1.22982 0
M  V30 794 C 76.8651 0.860018 3.27703 0
M  V30 795 C 75.4241 0.561185 3.72193 0
M  V30 796 C 74.5711 1.07385 2.55663 0
M  V30 797 H 77.5221 1.0183 1.21722 0
M  V30 798 H 77.5431 0.166038 3.80138 0
M  V30 799 H 77.0551 1.93731 3.36288 0
M  V30 800 H 75.1561 -0.506465 3.69142 0
M  V30 801 H 75.2691 1.10926 4.66082 0
M  V30 802 H 73.6331 0.495149 2.49841 0
M  V30 803 H 74.4161 2.15771 2.67016 0
M  V30 804 N 76.8612 -1.46375 0.584142 0
M  V30 805 C 78.1092 -2.01978 0.0701287 0
M  V30 806 C 78.4302 -1.4579 -1.295 0
M  V30 807 O 77.7002 -0.64314 -1.85042 0
M  V30 808 H 76.2802 -0.746648 0.0229345 0
M  V30 809 H 78.9422 -1.79461 0.760245 0
M  V30 810 H 78.0382 -3.121 0.0022064 0
M  V30 811 N 78.3393 -0.321999 -1.54275 0
M  V30 812 C 79.3023 0.531975 -2.22941 0
M  V30 813 C 80.3023 1.04478 -1.22234 0
M  V30 814 O 81.4923 0.937452 -1.46825 0
M  V30 815 C 78.6243 1.73874 -2.93224 0
M  V30 816 H 79.8173 -0.0682612 -2.99822 0
M  V30 817 H 77.3703 -0.0730644 -1.56129 0
M  V30 818 H 78.1053 2.37825 -2.20476 0
M  V30 819 H 77.8903 1.37847 -3.6707 0
M  V30 820 H 79.3803 2.34496 -3.45545 0
M  V30 821 N 79.8174 1.5752 -0.0501392 0
M  V30 822 C 81.0474 1.96678 0.632573 0
M  V30 823 C 81.4554 0.926298 1.64974 0
M  V30 824 O 80.7984 -0.09802 1.83438 0
M  V30 825 C 80.8604 3.32068 1.37735 0
M  V30 826 C 80.5244 4.54076 0.516131 0
M  V30 827 C 81.5214 5.19445 -0.217357 0
M  V30 828 C 79.2064 5.00304 0.44736 0
M  V30 829 C 81.2004 6.29378 -1.00807 0
M  V30 830 C 78.8874 6.10114 -0.347038 0
M  V30 831 C 79.8854 6.74512 -1.07344 0
M  V30 832 O 79.5734 7.82211 -1.85477 0
M  V30 833 H 79.3054 0.652193 0.177821 0
M  V30 834 H 81.8594 2.05091 -0.112543 0
M  V30 835 H 80.0894 3.20206 2.16807 0
M  V30 836 H 81.7784 3.55981 1.95019 0
M  V30 837 H 82.5444 4.84689 -0.173688 0
M  V30 838 H 78.4234 4.49971 1.00235 0
M  V30 839 H 81.9674 6.79575 -1.57556 0
M  V30 840 H 77.8644 6.44307 -0.392349 0
M  V30 841 H 78.6324 7.98982 -1.77678 0
M  V30 842 N 81.2955 -0.223234 1.56011 0
M  V30 843 C 82.2055 -1.29766 1.95443 0
M  V30 844 C 83.2215 -1.51373 0.858028 0
M  V30 845 O 84.3975 -1.64536 1.16146 0
M  V30 846 C 81.4625 -2.62772 2.26167 0
M  V30 847 C 80.5235 -2.49482 3.49367 0
M  V30 848 C 79.7565 -3.76145 3.78616 0
M  V30 849 O 79.9795 -4.79087 3.09568 0
M  V30 850 O 78.9135 -3.73358 4.72109 0
M  V30 851 H 82.7395 -0.99309 2.87004 0
M  V30 852 H 80.3245 -0.425958 1.43199 0
M  V30 853 H 82.2065 -3.41327 2.47131 0
M  V30 854 H 80.8815 -2.92913 1.37781 0
M  V30 855 H 79.7885 -1.69133 3.33684 0
M  V30 856 H 81.1215 -2.2428 4.38131 0
M  V30 857 N 82.7736 -1.49793 -0.48987 0
M  V30 858 C 84.0226 -1.59085 -1.23995 0
M  V30 859 C 84.3356 -0.287907 -1.9347 0
M  V30 860 O 85.5416 -0.259506 -2.70257 0
M  V30 861 C 83.9976 -2.80736 -2.252 0
M  V30 862 C 83.6056 -4.17833 -1.61614 0
M  V30 863 C 85.3496 -2.99364 -3.00967 0
M  V30 864 C 83.2566 -5.30693 -2.60996 0
M  V30 865 H 82.1866 -0.592372 -0.466488 0
M  V30 866 H 84.8376 -1.76197 -0.51252 0
M  V30 867 H 83.2196 -2.57142 -3.01154 0
M  V30 868 H 84.3936 -4.51608 -0.915774 0
M  V30 869 H 82.7086 -4.04656 -0.981977 0
M  V30 870 H 85.3056 -3.80851 -3.75308 0
M  V30 871 H 85.6486 -2.10356 -3.59244 0
M  V30 872 H 86.1816 -3.2305 -2.32128 0
M  V30 873 H 82.9206 -6.21796 -2.07485 0
M  V30 874 H 82.4406 -5.01359 -3.2924 0
M  V30 875 H 84.1196 -5.6049 -3.23202 0
M  V30 876 N 84.2517 0.741722 -1.39055 0
M  V30 877 C 85.6627 1.31966 -1.32068 0
M  V30 878 C 86.0137 1.96192 0.0180797 0
M  V30 879 O 85.1387 1.95861 0.920196 0
M  V30 880 C 85.7337 2.39954 -2.39181 0
M  V30 881 C 84.2927 2.93438 -2.35735 0
M  V30 882 C 83.4397 1.66936 -2.21422 0
M  V30 883 H 86.3907 0.539721 -1.4924 0
M  V30 884 H 86.4117 3.20182 -2.05581 0
M  V30 885 H 85.9237 1.9318 -3.36605 0
M  V30 886 H 84.0247 3.4451 -1.41929 0
M  V30 887 H 84.1377 3.4701 -3.30335 0
M  V30 888 H 82.5017 1.91016 -1.68478 0
M  V30 889 H 83.2847 1.22224 -3.20806 0
M  V30 890 N 85.7298 1.2412 0.971189 0
M  V30 891 C 86.6598 1.05508 2.08304 0
M  V30 892 C 87.6408 -0.0308864 1.70072 0
M  V30 893 O 88.8258 0.135521 1.93727 0
M  V30 894 C 85.9558 0.655365 3.4106 0
M  V30 895 C 84.9098 1.68971 3.93234 0
M  V30 896 C 84.2358 1.14516 5.22293 0
M  V30 897 C 85.5358 3.08487 4.21465 0
M  V30 898 H 87.2298 1.98507 2.24132 0
M  V30 899 H 84.7758 0.955821 1.07704 0
M  V30 900 H 86.7288 0.51217 4.18276 0
M  V30 901 H 85.4528 -0.31032 3.25122 0
M  V30 902 H 84.1118 1.82106 3.18171 0
M  V30 903 H 83.7598 0.170189 5.02712 0
M  V30 904 H 83.4598 1.83635 5.58168 0
M  V30 905 H 84.9838 1.01401 6.02121 0
M  V30 906 H 86.3978 2.98601 4.89398 0
M  V30 907 H 84.7948 3.74926 4.68562 0
M  V30 908 H 85.8648 3.56787 3.28376 0
M  V30 909 N 87.2079 -1.17134 1.05439 0
M  V30 910 C 88.1579 -2.1919 0.627675 0
M  V30 911 C 89.1419 -1.57328 -0.337147 0
M  V30 912 O 90.3339 -1.76329 -0.153976 0
M  V30 913 C 87.4629 -3.43299 0.00651435 0
M  V30 914 C 86.5489 -4.12255 0.995312 0
M  V30 915 N 86.9399 -4.56997 2.16765 0
M  V30 916 C 85.2379 -4.38316 0.824336 0
M  V30 917 C 85.9389 -5.10239 2.7934 0
M  V30 918 N 84.9149 -5.02595 2.07122 0
M  V30 919 H 88.7169 -2.5149 1.52086 0
M  V30 920 H 86.2309 -1.33491 0.924868 0
M  V30 921 H 88.2279 -4.15693 -0.316965 0
M  V30 922 H 86.8879 -3.1249 -0.882033 0
M  V30 923 H 87.8989 -4.51006 2.54587 0
M  V30 924 H 84.5759 -4.17498 -0.0129526 0
M  V30 925 H 85.9659 -5.54961 3.78772 0
M  V30 926 N 88.686 -0.835752 -1.33615 0
M  V30 927 C 89.649 -0.272 -2.2758 0
M  V30 928 C 90.649 0.557487 -1.50827 0
M  V30 929 O 91.839 0.37173 -1.70188 0
M  V30 930 C 88.971 0.617173 -3.35267 0
M  V30 931 H 90.164 -1.10111 -2.78954 0
M  V30 932 H 87.717 -0.608594 -1.43965 0
M  V30 933 H 88.452 1.46884 -2.89129 0
M  V30 934 H 88.237 0.0237066 -3.92093 0
M  V30 935 H 89.727 1.005 -4.05326 0
M  V30 936 N 90.1641 1.46063 -0.591896 0
M  V30 937 C 91.1111 2.30399 0.136069 0
M  V30 938 C 92.0811 1.41169 0.875238 0
M  V30 939 O 93.2661 1.70112 0.86409 0
M  V30 940 C 90.4061 3.25804 1.13781 0
M  V30 941 C 89.5191 4.30134 0.401137 0
M  V30 942 C 88.6541 5.12659 1.39121 0
M  V30 943 C 87.6931 6.0873 0.641462 0
M  V30 944 N 86.8301 6.8409 1.58004 0
M  V30 945 H 91.6701 2.92118 -0.589144 0
M  V30 946 H 89.2071 1.43959 -0.302342 0
M  V30 947 H 91.1651 3.79569 1.73156 0
M  V30 948 H 89.7951 2.65872 1.83062 0
M  V30 949 H 88.8471 3.79152 -0.307826 0
M  V30 950 H 90.1591 4.98458 -0.184565 0
M  V30 951 H 89.3131 5.70747 2.05749 0
M  V30 952 H 88.0521 4.44316 2.01084 0
M  V30 953 H 87.0571 5.49786 -0.0385419 0
M  V30 954 H 88.2821 6.79095 0.0270945 0
M  V30 955 H 86.2281 6.18449 2.18761 0
M  V30 956 H 86.1451 7.48709 1.04738 0
M  V30 957 H 87.4131 7.4673 2.23639 0
M  V30 958 N 91.6422 0.330177 1.54103 0
M  V30 959 C 92.8702 -0.272179 2.05102 0
M  V30 960 C 93.2852 -1.45267 1.20595 0
M  V30 961 O 92.6422 -1.8094 0.238144 0
M  V30 962 C 92.6932 -0.70023 3.54653 0
M  V30 963 O 92.4142 0.433301 4.35952 0
M  V30 964 C 93.9152 -1.3647 4.21771 0
M  V30 965 H 91.1352 -0.0549159 0.668749 0
M  V30 966 H 93.6792 0.478285 1.98828 0
M  V30 967 H 91.8342 -1.40066 3.61193 0
M  V30 968 H 92.2482 0.0947539 5.24414 0
M  V30 969 H 93.7222 -1.61509 5.27843 0
M  V30 970 H 94.1992 -2.31409 3.73292 0
M  V30 971 H 94.8052 -0.706675 4.19388 0
M  V30 972 N 93.1203 -1.57491 0.0584922 0
M  V30 973 C 94.0503 -2.14988 -0.911178 0
M  V30 974 C 95.0313 -1.07343 -1.31952 0
M  V30 975 O 96.2163 -1.35318 -1.39294 0
M  V30 976 C 93.3463 -2.70078 -2.18347 0
M  V30 977 C 92.3003 -3.82771 -1.91495 0
M  V30 978 C 91.6263 -4.24408 -3.25241 0
M  V30 979 C 92.9263 -5.07592 -1.23075 0
M  V30 980 H 94.6203 -2.96263 -0.432246 0
M  V30 981 H 92.1663 -1.42512 -0.206469 0
M  V30 982 H 94.1193 -3.08943 -2.86587 0
M  V30 983 H 92.8433 -1.86005 -2.68458 0
M  V30 984 H 91.5023 -3.44389 -1.25664 0
M  V30 985 H 91.1503 -3.37275 -3.73168 0
M  V30 986 H 90.8503 -5.00366 -3.08071 0
M  V30 987 H 92.3743 -4.65879 -3.94701 0
M  V30 988 H 93.7883 -5.43857 -1.81362 0
M  V30 989 H 92.1853 -5.88741 -1.16207 0
M  V30 990 H 93.2553 -4.84454 -0.207847 0
M  V30 991 N 94.5984 0.214957 -1.56127 0
M  V30 992 C 95.5614 1.24997 -1.92116 0
M  V30 993 C 96.5614 1.39467 -0.800344 0
M  V30 994 O 97.7514 1.37619 -1.06802 0
M  V30 995 C 94.8834 2.62271 -2.17777 0
M  V30 996 H 96.0764 0.942875 -2.84693 0
M  V30 997 H 93.6294 0.455654 -1.49511 0
M  V30 998 H 94.3644 2.98068 -1.27773 0
M  V30 999 H 94.1494 2.53143 -2.99434 0
M  V30 1000 H 95.6394 3.36946 -2.46693 0
M  V30 1001 N 96.0765 1.50051 0.48192 0
M  V30 1002 C 97.4925 1.37237 0.814756 0
M  V30 1003 C 97.6925 0.420109 1.97072 0
M  V30 1004 O 96.7485 -0.141246 2.52105 0
M  V30 1005 C 98.0615 2.78375 1.13701 0
M  V30 1006 C 99.6095 2.87213 1.2441 0
M  V30 1007 C 100.084 4.29161 1.59954 0
M  V30 1008 N 101.575 4.32061 1.66967 0
M  V30 1009 C 102.31 5.38879 1.95952 0
M  V30 1010 N 101.806 6.55918 2.23031 0
M  V30 1011 N 103.599 5.26312 1.97363 0
M  V30 1012 H 95.7505 2.10546 -0.28005 0
M  V30 1013 H 98.0135 0.945921 -0.0627454 0
M  V30 1014 H 97.7195 3.49845 0.360787 0
M  V30 1015 H 97.5935 3.14941 2.07586 0
M  V30 1016 H 99.9805 2.15969 2.01101 0
M  V30 1017 H 100.061 2.54204 0.285299 0
M  V30 1018 H 99.7055 5.00938 0.838067 0
M  V30 1019 H 99.6355 4.59648 2.56966 0
M  V30 1020 H 102.126 3.47661 1.48123 0
M  V30 1021 H 102.439 7.33139 2.44391 0
M  V30 1022 H 100.784 6.59112 2.20447 0
M  V30 1023 H 103.975 4.33876 1.75697 0
M  V30 1024 H 104.148 6.09649 2.19618 0
M  V30 1025 N 97.5546 -0.734337 1.39446 0
M  V30 1026 C 98.7826 -1.52358 1.39981 0
M  V30 1027 C 99.1976 -1.88799 -0.0054975 0
M  V30 1028 O 98.5546 -1.54146 -0.976998 0
M  V30 1029 C 98.6056 -2.81072 2.27333 0
M  V30 1030 O 98.3266 -2.46178 3.62392 0
M  V30 1031 C 99.8276 -3.75096 2.36259 0
M  V30 1032 H 97.0476 -0.470806 0.478103 0
M  V30 1033 H 99.5916 -0.907339 1.83269 0
M  V30 1034 H 97.7466 -3.39026 1.87457 0
M  V30 1035 H 98.1606 -3.28866 4.08592 0
M  V30 1036 H 99.6346 -4.62305 3.01626 0
M  V30 1037 H 100.112 -4.16892 1.38194 0
M  V30 1038 H 100.718 -3.23061 2.76608 0
M  V30 1039 N 99.0327 -1.24633 -0.964593 0
M  V30 1040 C 100.281 -1.08573 -1.70459 0
M  V30 1041 C 100.602 0.375655 -1.91347 0
M  V30 1042 O 99.8717 1.26779 -1.49345 0
M  V30 1043 H 98.4517 -0.398784 -0.631649 0
M  V30 1044 H 101.114 -1.56601 -1.16026 0
M  V30 1045 H 100.21 -1.58623 -2.68785 0
M  V30 1046 N 100.511 1.16574 -1.06058 0
M  V30 1047 C 101.927 1.3904 -0.783585 0
M  V30 1048 C 102.127 1.91784 0.618145 0
M  V30 1049 O 101.183 2.11511 1.37911 0
M  V30 1050 C 102.496 2.37329 -1.84649 0
M  V30 1051 C 104.044 2.51018 -1.86973 0
M  V30 1052 C 104.519 3.52588 -2.92311 0
M  V30 1053 N 106.01 3.60113 -2.91329 0
M  V30 1054 C 106.745 4.38486 -3.69482 0
M  V30 1055 N 106.241 5.20302 -4.57447 0
M  V30 1056 N 108.034 4.33446 -3.57885 0
M  V30 1057 H 100.185 0.806725 -1.96483 0
M  V30 1058 H 102.448 0.417117 -0.851303 0
M  V30 1059 H 102.154 2.05663 -2.85299 0
M  V30 1060 H 102.028 3.36946 -1.6955 0
M  V30 1061 H 104.415 2.81989 -0.869827 0
M  V30 1062 H 104.496 1.51445 -2.0615 0
M  V30 1063 H 104.14 3.22354 -3.92492 0
M  V30 1064 H 104.07 4.51886 -2.70383 0
M  V30 1065 H 106.561 3.01707 -2.27555 0
M  V30 1066 H 106.874 5.77311 -5.13743 0
M  V30 1067 H 105.219 5.19653 -4.61503 0
M  V30 1068 H 108.41 3.68586 -2.88551 0
M  V30 1069 H 108.583 4.94279 -4.19037 0
M  V30 1070 N 101.989 0.842826 1.3317 0
M  V30 1071 C 103.219 0.453397 2.01564 0
M  V30 1072 C 103.627 -0.951147 1.63554 0
M  V30 1073 O 102.97 -1.63021 0.846746 0
M  V30 1074 C 103.032 0.499013 3.5602 0
M  V30 1075 C 102.696 1.86037 4.1742 0
M  V30 1076 C 103.693 2.82416 4.36506 0
M  V30 1077 C 101.378 2.15428 4.53757 0
M  V30 1078 C 103.372 4.06346 4.91082 0
M  V30 1079 C 101.059 3.39615 5.0804 0
M  V30 1080 C 102.057 4.3489 5.26649 0
M  V30 1081 O 101.745 5.5688 5.79776 0
M  V30 1082 H 101.477 0.177871 0.652179 0
M  V30 1083 H 104.031 1.13808 1.70988 0
M  V30 1084 H 102.261 -0.242467 3.85939 0
M  V30 1085 H 103.95 0.126852 4.05702 0
M  V30 1086 H 104.716 2.6101 4.08777 0
M  V30 1087 H 100.595 1.42061 4.38565 0
M  V30 1088 H 104.139 4.80722 5.05522 0
M  V30 1089 H 100.036 3.60876 5.352 0
M  V30 1090 H 100.804 5.58674 5.98185 0
M  V30 1091 N 103.467 -1.45747 0.599634 0
M  V30 1092 C 104.43 -2.28917 -0.113835 0
M  V30 1093 C 105.43 -1.3933 -0.802729 0
M  V30 1094 O 106.62 -1.61534 -0.652103 0
M  V30 1095 C 103.752 -3.20152 -1.17114 0
M  V30 1096 H 104.945 -2.93478 0.617289 0
M  V30 1097 H 102.498 -1.52137 0.358327 0
M  V30 1098 H 103.233 -2.60374 -1.93329 0
M  V30 1099 H 103.018 -3.86133 -0.681468 0
M  V30 1100 H 104.508 -3.82708 -1.67105 0
M  V30 1101 N 104.945 -0.338344 -1.53925 0
M  V30 1102 C 105.908 0.508299 -2.23493 0
M  V30 1103 C 106.908 1.03175 -1.23335 0
M  V30 1104 O 108.098 0.921826 -1.47811 0
M  V30 1105 C 105.23 1.70754 -2.95052 0
M  V30 1106 H 106.423 -0.100058 -2.99733 0
M  V30 1107 H 103.976 -0.0896198 -1.56043 0
M  V30 1108 H 104.711 2.35474 -2.22986 0
M  V30 1109 H 104.496 1.33946 -3.68512 0
M  V30 1110 H 105.986 2.30818 -3.48013 0
M  V30 1111 N 106.423 1.57458 -0.0668435 0
M  V30 1112 C 107.672 1.92477 0.602947 0
M  V30 1113 C 107.985 0.948419 1.71068 0
M  V30 1114 O 109.191 1.19124 2.43971 0
M  V30 1115 C 107.647 3.41903 1.12383 0
M  V30 1116 C 107.255 4.47975 0.04737 0
M  V30 1117 C 108.999 3.85931 1.76797 0
M  V30 1118 C 106.906 5.88529 0.582022 0
M  V30 1119 H 105.836 0.718387 0.22899 0
M  V30 1120 H 108.487 1.82978 -0.138276 0
M  V30 1121 H 106.869 3.46459 1.91787 0
M  V30 1122 H 108.043 4.55029 -0.726978 0
M  V30 1123 H 106.358 4.13384 -0.500243 0
M  V30 1124 H 108.955 4.88322 2.17821 0
M  V30 1125 H 109.298 3.23029 2.62599 0
M  V30 1126 H 109.831 3.83958 1.04024 0
M  V30 1127 H 106.57 6.55065 -0.238721 0
M  V30 1128 H 106.09 5.85004 1.324 0
M  V30 1129 H 107.769 6.38258 1.05999 0
M  V30 1130 N 107.901 -0.206675 1.56239 0
M  V30 1131 C 109.147 -0.930218 1.80208 0
M  V30 1132 C 109.48 -1.83387 0.638981 0
M  V30 1133 O 108.755 -1.91119 -0.361066 0
M  V30 1134 C 109.038 -1.75641 3.1436 0
M  V30 1135 C 108.891 -0.878257 4.41142 0
M  V30 1136 C 110.21 -2.73129 3.45092 0
M  V30 1137 H 107.329 -0.336742 0.655571 0
M  V30 1138 H 109.971 -0.198222 1.88963 0
M  V30 1139 H 108.121 -2.38048 3.07027 0
M  V30 1140 H 109.793 -0.269787 4.6051 0
M  V30 1141 H 108.036 -0.184385 4.33408 0
M  V30 1142 H 108.707 -1.49106 5.3148 0
M  V30 1143 H 111.183 -2.20856 3.52649 0
M  V30 1144 H 110.059 -3.28028 4.40101 0
M  V30 1145 H 110.32 -3.51606 2.68003 0
M  V30 1146 N 109.379 -1.50304 -0.473955 0
M  V30 1147 C 110.627 -1.60832 -1.22382 0
M  V30 1148 C 110.948 -0.30939 -1.9253 0
M  V30 1149 O 110.218 0.67296 -1.83978 0
M  V30 1150 H 108.798 -0.592652 -0.454723 0
M  V30 1151 H 111.46 -1.87068 -0.546968 0
M  V30 1152 H 110.556 -2.41803 -1.97327 0
M  V30 1153 N 110.857 0.726932 -1.39834 0
M  V30 1154 C 111.82 1.82269 -1.38962 0
M  V30 1155 C 112.82 1.58248 -0.285334 0
M  V30 1156 O 114.01 1.65499 -0.54366 0
M  V30 1157 C 111.142 3.20186 -1.17019 0
M  V30 1158 H 112.335 1.84443 -2.36476 0
M  V30 1159 H 109.888 0.931416 -1.25516 0
M  V30 1160 H 110.623 3.23669 -0.202204 0
M  V30 1161 H 110.408 3.3902 -1.96998 0
M  V30 1162 H 111.898 4.00235 -1.1917 0
M  V30 1163 N 112.336 1.25143 0.95797 0
M  V30 1164 C 113.299 1.05321 2.03569 0
M  V30 1165 C 114.299 0.007152 1.60798 0
M  V30 1166 O 115.489 0.24903 1.72411 0
M  V30 1167 C 112.621 0.598394 3.35607 0
M  V30 1168 H 113.814 2.00986 2.22586 0
M  V30 1169 H 111.367 1.07502 1.13459 0
M  V30 1170 H 112.102 -0.361014 3.22284 0
M  V30 1171 H 111.887 1.35351 3.67998 0
M  V30 1172 H 113.377 0.48104 4.1482 0
M  V30 1173 N 113.814 -1.1601 1.06675 0
M  V30 1174 C 115.061 -1.86633 0.785781 0
M  V30 1175 C 115.389 -1.81929 -0.687896 0
M  V30 1176 O 114.644 -1.23253 -1.52011 0
M  V30 1177 C 114.943 -3.35547 1.23057 0
M  V30 1178 C 114.609 -3.60448 2.70902 0
M  V30 1179 C 113.271 -3.66954 3.11285 0
M  V30 1180 C 115.623 -3.7071 3.66365 0
M  V30 1181 C 112.951 -3.81225 4.45965 0
M  V30 1182 C 115.303 -3.86503 5.00797 0
M  V30 1183 C 113.967 -3.91252 5.40813 0
M  V30 1184 H 113.237 -0.682937 0.287538 0
M  V30 1185 H 115.884 -1.37146 1.33654 0
M  V30 1186 H 114.189 -3.87193 0.59907 0
M  V30 1187 H 115.886 -3.88583 0.990163 0
M  V30 1188 H 112.476 -3.56021 2.38636 0
M  V30 1189 H 116.66 -3.64991 3.36296 0
M  V30 1190 H 111.916 -3.83155 4.76447 0
M  V30 1191 H 116.09 -3.93385 5.74649 0
M  V30 1192 H 113.717 -4.02062 6.45174 0
M  V30 1193 N 115.292 -0.849877 -1.32721 0
M  V30 1194 C 116.538 -0.451591 -1.97708 0
M  V30 1195 C 116.871 0.989175 -1.6712 0
M  V30 1196 O 116.146 1.69334 -0.956891 0
M  V30 1197 C 116.429 -0.685598 -3.53513 0
M  V30 1198 C 116.282 -2.17444 -3.93749 0
M  V30 1199 C 117.601 -0.138874 -4.39881 0
M  V30 1200 H 114.72 -0.16555 -0.718166 0
M  V30 1201 H 117.362 -1.06742 -1.57182 0
M  V30 1202 H 115.512 -0.161416 -3.88165 0
M  V30 1203 H 117.184 -2.76433 -3.693 0
M  V30 1204 H 115.427 -2.65476 -3.43081 0
M  V30 1205 H 116.098 -2.28888 -5.02309 0
M  V30 1206 H 118.574 -0.587068 -4.11938 0
M  V30 1207 H 117.45 -0.332213 -5.47894 0
M  V30 1208 H 117.711 0.95806 -4.31594 0
M  V30 1209 N 116.77 1.45427 -0.607355 0
M  V30 1210 C 118.019 2.01452 -0.100036 0
M  V30 1211 C 118.332 1.48159 1.27704 0
M  V30 1212 O 119.538 1.96159 1.87707 0
M  V30 1213 C 117.994 3.59672 -0.128158 0
M  V30 1214 C 117.602 4.21962 -1.50507 0
M  V30 1215 C 119.346 4.23262 0.323932 0
M  V30 1216 C 117.253 5.72333 -1.48959 0
M  V30 1217 H 116.183 0.75325 -0.0336299 0
M  V30 1218 H 118.834 1.66901 -0.76265 0
M  V30 1219 H 117.216 3.91411 0.601105 0
M  V30 1220 H 118.39 4.01796 -2.25602 0
M  V30 1221 H 116.705 3.70565 -1.89923 0
M  V30 1222 H 119.302 5.33522 0.354691 0
M  V30 1223 H 119.645 3.93921 1.34656 0
M  V30 1224 H 120.178 3.96239 -0.352056 0
M  V30 1225 H 116.917 6.06373 -2.48981 0
M  V30 1226 H 116.437 5.94691 -0.781214 0
M  V30 1227 H 118.116 6.35525 -1.21313 0
M  V30 1228 N 118.248 0.346503 1.53744 0
M  V30 1229 C 119.525 -0.304532 1.93215 0
M  V30 1230 C 119.905 -1.67993 1.27834 0
M  V30 1231 O 119.253 -2.24411 0.430352 0
M  V30 1232 C 119.463 -0.373852 3.46992 0
M  V30 1233 C 120.811 -0.62329 4.2 0
M  V30 1234 O 121.835 -0.455847 3.53271 0
M  V30 1235 O 120.694 -0.947879 5.38217 0
M  V30 1236 H 117.788 -0.178318 0.807547 0
M  V30 1237 H 120.334 0.397895 1.64969 0
M  V30 1238 H 119.106 0.591224 3.86808 0
M  V30 1239 H 118.729 -1.12294 3.81413 0
M  V30 1240 N 119.726 -1.57421 0.075193 0
M  V30 1241 C 120.974 -1.93236 -0.591974 0
M  V30 1242 C 121.295 -0.956241 -1.69944 0
M  V30 1243 O 120.565 -0.00494792 -1.95899 0
M  V30 1244 H 119.145 -0.713355 -0.22166 0
M  V30 1245 H 121.807 -1.9444 0.133848 0
M  V30 1246 H 120.903 -2.95131 -1.01509 0
M  V30 1247 N 121.204 0.198386 -1.56346 0
M  V30 1248 C 122.452 0.91747 -1.80075 0
M  V30 1249 C 122.773 1.83929 -0.647692 0
M  V30 1250 O 122.043 1.93029 0.334166 0
M  V30 1251 H 120.623 0.341774 -0.664228 0
M  V30 1252 H 123.285 0.204684 -1.93822 0
M  V30 1253 H 122.381 1.51055 -2.7311 0
M  V30 1254 N 122.682 1.50554 0.465978 0
M  V30 1255 C 123.931 1.61038 1.21448 0
M  V30 1256 C 124.244 0.31865 1.92987 0
M  V30 1257 O 125.45 0.302469 2.6981 0
M  V30 1258 C 123.906 2.84283 2.20706 0
M  V30 1259 C 123.514 4.20352 1.54946 0
M  V30 1260 C 125.258 3.04115 2.96166 0
M  V30 1261 C 123.165 5.34778 2.5252 0
M  V30 1262 H 122.095 0.599718 0.457005 0
M  V30 1263 H 124.746 1.7699 0.484424 0
M  V30 1264 H 123.128 2.61901 2.97025 0
M  V30 1265 H 124.302 4.53008 0.843811 0
M  V30 1266 H 122.617 4.06167 0.917475 0
M  V30 1267 H 125.214 3.86774 3.69202 0
M  V30 1268 H 125.557 2.16045 3.55852 0
M  V30 1269 H 126.09 3.26702 2.26959 0
M  V30 1270 H 122.829 6.25018 1.97566 0
M  V30 1271 H 122.349 5.06534 3.21222 0
M  V30 1272 H 124.028 5.65561 3.14245 0
M  V30 1273 N 124.16 -0.719506 1.40217 0
M  V30 1274 C 125.39 -1.50646 1.41384 0
M  V30 1275 C 125.798 -1.89197 0.0107743 0
M  V30 1276 O 125.141 -1.55709 -0.974708 0
M  V30 1277 C 125.203 -2.81405 2.23722 0
M  V30 1278 C 124.867 -2.65199 3.72181 0
M  V30 1279 C 125.864 -2.32717 4.64907 0
M  V30 1280 C 123.549 -2.81586 4.1595 0
M  V30 1281 C 125.543 -2.16827 5.99387 0
M  V30 1282 C 123.23 -2.65313 5.50502 0
M  V30 1283 C 124.228 -2.32981 6.42035 0
M  V30 1284 O 123.916 -2.16827 7.74107 0
M  V30 1285 H 123.648 -0.471606 0.484318 0
M  V30 1286 H 126.202 -0.895456 1.84853 0
M  V30 1287 H 124.432 -3.44823 1.75026 0
M  V30 1288 H 126.121 -3.43102 2.16878 0
M  V30 1289 H 126.887 -2.19694 4.32388 0
M  V30 1290 H 122.766 -3.0574 3.45027 0
M  V30 1291 H 126.31 -1.91513 6.70797 0
M  V30 1292 H 122.207 -2.7792 5.82607 0
M  V30 1293 H 122.975 -2.31778 7.84998 0
M  V30 1294 N 125.638 -1.25649 -0.95132 0
M  V30 1295 C 127.054 -1.02542 -1.223 0
M  V30 1296 C 127.254 0.255715 -1.99871 0
M  V30 1297 O 126.31 0.967558 -2.33226 0
M  V30 1298 C 127.623 -2.25065 -1.99415 0
M  V30 1299 C 129.171 -2.29861 -2.12446 0
M  V30 1300 C 129.646 -3.52048 -2.92961 0
M  V30 1301 N 131.137 -3.52465 -3.00538 0
M  V30 1302 C 131.872 -4.43672 -3.63239 0
M  V30 1303 N 131.368 -5.45157 -4.27523 0
M  V30 1304 N 133.161 -4.31346 -3.60412 0
M  V30 1305 H 125.312 -2.07951 -0.432471 0
M  V30 1306 H 127.575 -0.91339 -0.253816 0
M  V30 1307 H 127.281 -3.18194 -1.49817 0
M  V30 1308 H 127.155 -2.28502 -3.00111 0
M  V30 1309 H 129.542 -1.37252 -2.61239 0
M  V30 1310 H 129.623 -2.3044 -1.11044 0
M  V30 1311 H 129.267 -4.44981 -2.44856 0
M  V30 1312 H 129.197 -3.48715 -3.94596 0
M  V30 1313 H 131.688 -2.79056 -2.54826 0
M  V30 1314 H 132.001 -6.10958 -4.73234 0
M  V30 1315 H 130.346 -5.49025 -4.26141 0
M  V30 1316 H 133.537 -3.51288 -3.09377 0
M  V30 1317 H 133.71 -5.02624 -4.0899 0
M  V30 1318 N 127.117 1.15442 -1.07289 0
M  V30 1319 C 128.067 2.18164 -0.662467 0
M  V30 1320 C 129.051 1.57845 0.312074 0
M  V30 1321 O 130.243 1.76552 0.125905 0
M  V30 1322 C 127.372 3.43246 -0.0611295 0
M  V30 1323 C 126.458 4.1062 -1.06077 0
M  V30 1324 N 126.849 4.53491 -2.24008 0
M  V30 1325 C 125.147 4.36949 -0.893964 0
M  V30 1326 C 125.848 5.05731 -2.87422 0
M  V30 1327 N 124.824 4.99236 -2.15091 0
M  V30 1328 H 128.626 2.49038 -1.56068 0
M  V30 1329 H 126.14 1.32003 -0.945988 0
M  V30 1330 H 128.137 4.16145 0.250792 0
M  V30 1331 H 126.797 3.13854 0.832207 0
M  V30 1332 H 127.808 4.46898 -2.6173 0
M  V30 1333 H 124.485 4.17466 -0.0534693 0
M  V30 1334 H 125.875 5.48865 -3.87553 0
M  V30 1335 N 128.595 0.856903 1.32268 0
M  V30 1336 C 129.872 0.382583 1.91822 0
M  V30 1337 C 130.252 -1.13407 1.78051 0
M  V30 1338 O 129.6 -1.95673 1.18001 0
M  V30 1339 C 129.81 0.849446 3.38505 0
M  V30 1340 C 131.158 0.867936 4.15634 0
M  V30 1341 O 132.182 0.794232 3.47232 0
M  V30 1342 O 131.041 0.972286 5.37781 0
M  V30 1343 H 128.135 0.112014 0.819379 0
M  V30 1344 H 130.681 0.943952 1.41024 0
M  V30 1345 H 129.453 1.89267 3.42482 0
M  V30 1346 H 129.076 0.265652 3.96712 0
M  V30 1347 N 130.073 -1.45103 0.615059 0
M  V30 1348 C 131.32 -2.02183 0.113179 0
M  V30 1349 C 131.648 -1.48249 -1.25906 0
M  V30 1350 O 130.903 -0.650265 -1.84581 0
M  V30 1351 C 131.202 -3.57386 0.0318797 0
M  V30 1352 C 130.868 -4.30505 1.34077 0
M  V30 1353 C 129.53 -4.50197 1.69929 0
M  V30 1354 C 131.882 -4.72238 2.20546 0
M  V30 1355 C 129.21 -5.08881 2.91988 0
M  V30 1356 C 131.562 -5.32272 3.41861 0
M  V30 1357 C 130.226 -5.50187 3.77956 0
M  V30 1358 H 129.496 -0.739842 0.0414151 0
M  V30 1359 H 132.143 -1.74073 0.798168 0
M  V30 1360 H 130.448 -3.84817 -0.736409 0
M  V30 1361 H 132.145 -3.99264 -0.372712 0
M  V30 1362 H 128.735 -4.15496 1.05173 0
M  V30 1363 H 132.919 -4.56751 1.94146 0
M  V30 1364 H 128.175 -5.20939 3.2005 0
M  V30 1365 H 132.349 -5.63563 4.09109 0
M  V30 1366 H 129.976 -5.95427 4.72622 0
M  V30 1367 N 131.551 -0.354651 -1.53558 0
M  V30 1368 C 132.797 0.238797 -2.01389 0
M  V30 1369 C 133.13 1.49309 -1.2418 0
M  V30 1370 O 132.405 1.91638 -0.332457 0
M  V30 1371 C 132.688 0.541771 -3.56001 0
M  V30 1372 C 132.541 -0.725388 -4.43912 0
M  V30 1373 C 133.86 1.34685 -4.18984 0
M  V30 1374 H 130.979 0.0853177 -0.732045 0
M  V30 1375 H 133.621 -0.477384 -1.83905 0
M  V30 1376 H 131.771 1.15189 -3.71031 0
M  V30 1377 H 133.443 -1.36313 -4.407 0
M  V30 1378 H 131.686 -1.34801 -4.12324 0
M  V30 1379 H 132.357 -0.468505 -5.50008 0
M  V30 1380 H 134.833 0.830837 -4.07721 0
M  V30 1381 H 133.709 1.52759 -5.27215 0
M  V30 1382 H 133.97 2.35221 -3.74331 0
M  V30 1383 N 133.029 1.57378 -0.0835403 0
M  V30 1384 C 133.992 2.12252 0.864959 0
M  V30 1385 C 134.992 1.04916 1.21858 0
M  V30 1386 O 136.182 1.30853 1.14991 0
M  V30 1387 C 133.314 2.63358 2.16461 0
M  V30 1388 H 134.507 2.97371 0.388676 0
M  V30 1389 H 132.06 1.55423 0.165317 0
M  V30 1390 H 132.795 1.81727 2.686 0
M  V30 1391 H 132.58 3.41826 1.92087 0
M  V30 1392 H 134.07 3.05847 2.84337 0
M  V30 1393 N 134.507 -0.190092 1.56449 0
M  V30 1394 C 135.735 -0.925772 1.85033 0
M  V30 1395 C 136.15 -1.76638 0.666658 0
M  V30 1396 O 135.507 -1.78822 -0.364565 0
M  V30 1397 C 135.558 -1.81786 3.12468 0
M  V30 1398 O 135.279 -1.01118 4.26271 0
M  V30 1399 C 136.78 -2.6648 3.54265 0
M  V30 1400 H 134 -0.269872 0.614337 0
M  V30 1401 H 136.544 -0.195837 2.0356 0
M  V30 1402 H 134.699 -2.50136 2.95822 0
M  V30 1403 H 135.113 -1.61956 4.98869 0
M  V30 1404 H 136.587 -3.24722 4.46385 0
M  V30 1405 H 137.064 -3.40434 2.77491 0
M  V30 1406 H 137.67 -2.03493 3.73458 0
M  V30 1407 N 135.985 -1.50799 -0.457987 0
M  V30 1408 C 136.948 -1.7005 -1.53674 0
M  V30 1409 C 137.948 -0.570881 -1.50325 0
M  V30 1410 O 139.138 -0.838126 -1.52712 0
M  V30 1411 C 136.27 -1.73788 -2.93276 0
M  V30 1412 H 137.463 -2.66306 -1.37917 0
M  V30 1413 H 135.016 -1.40477 -0.685271 0
M  V30 1414 H 135.751 -0.792717 -3.14462 0
M  V30 1415 H 135.536 -2.55864 -2.97113 0
M  V30 1416 H 137.026 -1.90591 -3.71571 0
M  V30 1417 N 137.463 0.71206 -1.40597 0
M  V30 1418 C 138.709 1.47416 -1.39271 0
M  V30 1419 C 139.042 1.942 0.00388791 0
M  V30 1420 O 138.317 1.68403 0.973179 0
M  V30 1421 C 138.6 2.69774 -2.38525 0
M  V30 1422 C 138.453 2.28861 -3.87224 0
M  V30 1423 C 139.772 3.71939 -2.35264 0
M  V30 1424 H 136.891 0.534713 -0.5072 0
M  V30 1425 H 139.533 0.812375 -1.71757 0
M  V30 1426 H 137.683 3.26238 -2.10953 0
M  V30 1427 H 139.355 1.77852 -4.25636 0
M  V30 1428 H 137.598 1.60824 -4.02887 0
M  V30 1429 H 138.269 3.16584 -4.52193 0
M  V30 1430 H 140.745 3.25113 -2.59694 0
M  V30 1431 H 139.621 4.55186 -3.06753 0
M  V30 1432 H 139.882 4.20484 -1.36549 0
M  V30 1433 N 138.941 1.26152 0.944643 0
M  V30 1434 C 140.19 1.10883 1.68487 0
M  V30 1435 C 140.503 -0.348153 1.92477 0
M  V30 1436 O 141.709 -0.621459 2.64292 0
M  V30 1437 C 140.165 1.93624 3.03377 0
M  V30 1438 C 139.773 3.43875 2.87148 0
M  V30 1439 C 141.517 1.86954 3.81115 0
M  V30 1440 C 139.424 4.18875 4.1749 0
M  V30 1441 H 138.354 0.41135 0.631907 0
M  V30 1442 H 141.005 1.50433 1.05082 0
M  V30 1443 H 139.387 1.46904 3.67743 0
M  V30 1444 H 140.561 3.98338 2.31653 0
M  V30 1445 H 138.876 3.51744 2.22856 0
M  V30 1446 H 141.473 2.40275 4.77673 0
M  V30 1447 H 141.816 0.839518 4.07747 0
M  V30 1448 H 142.349 2.31477 3.23517 0
M  V30 1449 H 139.088 5.22332 3.96043 0
M  V30 1450 H 138.608 3.69193 4.72712 0
M  V30 1451 H 140.287 4.27134 4.85968 0
M  V30 1452 N 140.419 -1.14872 1.07899 0
M  V30 1453 C 141.367 -2.21857 0.698727 0
M  V30 1454 C 142.361 -1.66845 -0.293086 0
M  V30 1455 O 143.567 -1.79321 -0.156204 0
M  V30 1456 H 139.942 -0.722691 0.207899 0
M  V30 1457 H 141.913 -2.51205 1.61054 0
M  V30 1458 C 140.662 -3.47498 0.11858 0
M  V30 1459 H 139.985 -3.90154 0.872914 0
M  V30 1460 H 141.425 -4.23858 -0.109759 0
M  V30 1461 C 139.884 -3.16947 -1.1422 0
M  V30 1462 O 140.414 -3.3426 -2.22785 0
M  V30 1463 N 138.62 -2.70946 -1.05055 0
M  V30 1464 H 138.167 -2.57058 -0.167038 0
M  V30 1465 H 138.125 -2.50879 -1.89491 0
M  V30 1466 N 141.898 -0.863906 -1.31812 0
M  V30 1467 C 143.146 -0.470904 -1.96537 0
M  V30 1468 C 143.467 0.978771 -1.68657 0
M  V30 1469 O 142.737 1.6853 -0.998717 0
M  V30 1470 H 141.317 -0.171148 -0.72713 0
M  V30 1471 H 143.979 -1.10236 -1.60729 0
M  V30 1472 H 143.075 -0.623616 -3.05806 0
M  V30 1473 N 143.376 1.44774 -0.622745 0
M  V30 1474 C 144.309 2.27792 0.136329 0
M  V30 1475 C 145.287 1.38041 0.859264 0
M  V30 1476 O 146.471 1.67478 0.86506 0
M  V30 1477 C 143.598 3.16776 1.19878 0
M  V30 1478 C 142.644 4.22575 0.57731 0
M  V30 1479 S 143.477 5.31825 -0.626294 0
M  V30 1480 C 144.633 6.24377 0.436378 0
M  V30 1481 H 144.866 2.91824 -0.567967 0
M  V30 1482 H 142.399 1.48838 -0.410677 0
M  V30 1483 H 144.357 3.68596 1.80686 0
M  V30 1484 H 143.018 2.5198 1.87523 0
M  V30 1485 H 142.211 4.84818 1.37721 0
M  V30 1486 H 141.813 3.73974 0.0440439 0
M  V30 1487 H 144.105 6.64689 1.31128 0
M  V30 1488 H 145.048 7.07941 -0.150271 0
M  V30 1489 H 145.456 5.59381 0.758513 0
M  V30 1490 N 144.854 0.36279 1.53368 0
M  V30 1491 C 145.787 -0.528507 2.21996 0
M  V30 1492 C 146.765 -1.0852 1.21087 0
M  V30 1493 O 147.949 -1.14186 1.4998 0
M  V30 1494 C 145.076 -1.72893 2.91249 0
M  V30 1495 C 144.122 -1.29994 4.06207 0
M  V30 1496 S 144.955 -0.303575 5.34639 0
M  V30 1497 C 146.111 -1.51039 6.07403 0
M  V30 1498 H 146.344 0.0543423 2.9725 0
M  V30 1499 H 143.877 0.146889 1.537 0
M  V30 1500 H 145.835 -2.41751 3.31763 0
M  V30 1501 H 144.496 -2.28303 2.15724 0
M  V30 1502 H 143.689 -2.19549 4.53667 0
M  V30 1503 H 143.291 -0.690608 3.67569 0
M  V30 1504 H 145.583 -2.44186 6.31965 0
M  V30 1505 H 146.526 -1.07721 6.99858 0
M  V30 1506 H 146.934 -1.71518 5.37812 0
M  V30 1507 N 146.332 -1.57332 0.0918853 0
M  V30 1508 C 147.264 -2.10869 -0.898168 0
M  V30 1509 C 148.277 -1.04521 -1.24817 0
M  V30 1510 O 149.466 -1.31977 -1.20184 0
M  V30 1511 C 146.566 -2.57083 -2.2082 0
M  V30 1512 C 145.739 -3.87229 -2.03402 0
M  V30 1513 C 144.798 -4.19324 -3.17889 0
M  V30 1514 O 143.824 -4.88598 -2.91994 0
M  V30 1515 N 145.026 -3.74471 -4.43567 0
M  V30 1516 H 147.791 -2.96439 -0.440943 0
M  V30 1517 H 145.352 -1.61631 -0.0933064 0
M  V30 1518 H 147.344 -2.75602 -2.96354 0
M  V30 1519 H 145.914 -1.76541 -2.57977 0
M  V30 1520 H 145.134 -3.7789 -1.12218 0
M  V30 1521 H 146.422 -4.72379 -1.89038 0
M  V30 1522 H 145.82 -3.18546 -4.67488 0
M  V30 1523 H 144.377 -3.98151 -5.16061 0
M  V30 1524 N 147.81 0.181792 -1.56548 0
M  V30 1525 C 149.056 0.901431 -1.81665 0
M  V30 1526 C 149.389 1.82347 -0.668075 0
M  V30 1527 O 148.664 1.91669 0.330615 0
M  V30 1528 C 148.947 1.70618 -3.17115 0
M  V30 1529 C 148.8 0.807964 -4.42484 0
M  V30 1530 C 150.119 2.67605 -3.49393 0
M  V30 1531 H 147.238 0.32627 -0.660846 0
M  V30 1532 H 149.88 0.168134 -1.89255 0
M  V30 1533 H 148.03 2.33133 -3.10775 0
M  V30 1534 H 149.702 0.19649 -4.60881 0
M  V30 1535 H 147.945 0.115411 -4.33646 0
M  V30 1536 H 148.616 1.40632 -5.33785 0
M  V30 1537 H 151.092 2.15218 -3.56118 0
M  V30 1538 H 149.968 3.20985 -4.45264 0
M  V30 1539 H 150.229 3.47298 -2.73563 0
M  V30 1540 N 149.288 1.51039 0.449983 0
M  V30 1541 C 150.22 1.67617 1.56324 0
M  V30 1542 C 151.233 0.557083 1.52972 0
M  V30 1543 O 152.422 0.830989 1.57977 0
M  V30 1544 C 149.522 1.66402 2.95235 0
M  V30 1545 C 148.695 2.9469 3.23229 0
M  V30 1546 C 147.754 2.85832 4.41799 0
M  V30 1547 O 146.78 3.59785 4.41071 0
M  V30 1548 N 147.982 2.00821 5.44657 0
M  V30 1549 H 150.747 2.63648 1.42512 0
M  V30 1550 H 148.308 1.48767 0.638737 0
M  V30 1551 H 150.3 1.58062 3.72557 0
M  V30 1552 H 148.87 0.780182 3.02708 0
M  V30 1553 H 148.09 3.16996 2.34323 0
M  V30 1554 H 149.378 3.79636 3.38754 0
M  V30 1555 H 148.776 1.40091 5.48079 0
M  V30 1556 H 147.333 1.98368 6.20881 0
M  V30 1557 N 150.766 -0.704594 1.40972 0
M  V30 1558 C 151.696 -1.83124 1.44872 0
M  V30 1559 C 152.677 -1.67281 0.30838 0
M  V30 1560 O 153.862 -1.87149 0.518556 0
M  V30 1561 C 150.992 -3.21181 1.32136 0
M  V30 1562 C 149.946 -3.51714 2.43888 0
M  V30 1563 C 149.272 -4.89032 2.16222 0
M  V30 1564 C 150.572 -3.516 3.86232 0
M  V30 1565 H 152.266 -1.80117 2.39161 0
M  V30 1566 H 149.812 -0.865145 1.15114 0
M  V30 1567 H 151.765 -3.99702 1.33479 0
M  V30 1568 H 150.489 -3.24791 0.343279 0
M  V30 1569 H 149.148 -2.75539 2.41813 0
M  V30 1570 H 148.796 -4.89256 1.16778 0
M  V30 1571 H 148.496 -5.10426 2.911 0
M  V30 1572 H 150.02 -5.69873 2.19265 0
M  V30 1573 H 151.434 -4.2014 3.9007 0
M  V30 1574 H 149.831 -3.84523 4.60719 0
M  V30 1575 H 150.901 -2.50757 4.15029 0
M  V30 1576 N 152.244 -1.26651 -0.937939 0
M  V30 1577 C 153.154 -1.10276 -2.07066 0
M  V30 1578 C 154.17 -0.0354197 -1.73964 0
M  V30 1579 O 155.346 -0.239816 -1.99967 0
M  V30 1580 C 152.411 -0.740887 -3.38691 0
M  V30 1581 C 151.472 -1.88799 -3.85556 0
M  V30 1582 C 150.705 -1.54329 -5.10899 0
M  V30 1583 O 150.928 -0.446494 -5.6865 0
M  V30 1584 O 149.862 -2.37911 -5.52885 0
M  V30 1585 H 153.688 -2.05309 -2.23789 0
M  V30 1586 H 151.273 -1.05743 -1.0554 0
M  V30 1587 H 153.155 -0.55195 -4.1777 0
M  V30 1588 H 151.83 0.180022 -3.23199 0
M  V30 1589 H 150.737 -2.13191 -3.07409 0
M  V30 1590 H 152.07 -2.78874 -4.05574 0
M  V30 1591 N 153.722 1.14298 -1.08507 0
M  V30 1592 C 154.95 1.89219 -0.836876 0
M  V30 1593 C 155.365 1.78638 0.611054 0
M  V30 1594 O 154.722 1.14643 1.41998 0
M  V30 1595 C 154.773 3.39158 -1.25116 0
M  V30 1596 O 154.494 3.49449 -2.64229 0
M  V30 1597 C 155.995 4.31073 -1.03398 0
M  V30 1598 H 153.215 0.599328 -0.301739 0
M  V30 1599 H 155.759 1.44746 -1.44461 0
M  V30 1600 H 153.914 3.81251 -0.687514 0
M  V30 1601 H 154.328 4.42589 -2.81452 0
M  V30 1602 H 155.802 5.34646 -1.37323 0
M  V30 1603 H 156.279 4.3919 0.0289259 0
M  V30 1604 H 156.885 3.94738 -1.58311 0
M  V30 1605 N 155.201 0.870884 1.31352 0
M  V30 1606 C 156.111 0.330783 2.32256 0
M  V30 1607 C 157.127 -0.559767 1.6475 0
M  V30 1608 O 158.303 -0.456263 1.96164 0
M  V30 1609 C 155.368 -0.458137 3.4366 0
M  V30 1610 C 154.429 0.460482 4.26823 0
M  V30 1611 C 153.662 -0.290881 5.32907 0
M  V30 1612 O 153.885 -1.51885 5.49806 0
M  V30 1613 O 152.819 0.351732 6.00871 0
M  V30 1614 H 156.645 1.16718 2.80376 0
M  V30 1615 H 154.23 0.634285 1.35267 0
M  V30 1616 H 156.112 -0.905343 4.1156 0
M  V30 1617 H 154.787 -1.27106 2.97701 0
M  V30 1618 H 153.694 0.956207 3.61673 0
M  V30 1619 H 155.027 1.23903 4.7635 0
M  V30 1620 N 156.679 -1.44442 0.630414 0
M  V30 1621 C 157.925 -2.02351 0.134816 0
M  V30 1622 C 158.258 -1.4947 -1.23986 0
M  V30 1623 O 157.533 -0.678475 -1.82283 0
M  V30 1624 C 157.816 -3.59898 0.120707 0
M  V30 1625 C 157.669 -4.23063 1.52767 0
M  V30 1626 C 158.988 -4.36585 -0.555127 0
M  V30 1627 H 156.107 -0.73527 0.0504646 0
M  V30 1628 H 158.749 -1.72022 0.806751 0
M  V30 1629 H 156.899 -3.85868 -0.451477 0
M  V30 1630 H 158.571 -4.08202 2.14869 0
M  V30 1631 H 156.814 -3.80586 2.08175 0
M  V30 1632 H 157.485 -5.32071 1.46984 0
M  V30 1633 H 159.961 -4.16044 -0.0685429 0
M  V30 1634 H 158.837 -5.46294 -0.534185 0
M  V30 1635 H 159.098 -4.11138 -1.62535 0
M  V30 1636 N 158.157 -0.370918 -1.53173 0
M  V30 1637 C 159.568 0.107139 -1.86392 0
M  V30 1638 C 159.919 1.47714 -1.29132 0
M  V30 1639 O 159.044 2.07464 -0.615439 0
M  V30 1640 C 159.639 0.201187 -3.38202 0
M  V30 1641 C 158.198 0.623507 -3.712 0
M  V30 1642 C 157.345 -0.225978 -2.76378 0
M  V30 1643 H 160.296 -0.58951 -1.47345 0
M  V30 1644 H 160.317 1.02377 -3.66468 0
M  V30 1645 H 159.829 -0.796058 -3.79848 0
M  V30 1646 H 157.93 1.62879 -3.35114 0
M  V30 1647 H 158.043 0.394414 -4.77474 0
M  V30 1648 H 156.407 0.305962 -2.52856 0
M  V30 1649 H 157.19 -1.22086 -3.20858 0
M  V30 1650 N 159.635 1.57281 -0.100228 0
M  V30 1651 C 160.881 1.94826 0.563101 0
M  V30 1652 C 161.214 0.982475 1.67514 0
M  V30 1653 O 160.489 0.0164069 1.94493 0
M  V30 1654 C 160.772 3.42453 1.11346 0
M  V30 1655 C 160.625 4.498 0.00612081 0
M  V30 1656 C 161.944 3.91506 2.01024 0
M  V30 1657 H 159.063 0.708428 0.203221 0
M  V30 1658 H 161.705 1.8922 -0.171979 0
M  V30 1659 H 159.855 3.47361 1.7399 0
M  V30 1660 H 161.527 4.57 -0.628357 0
M  V30 1661 H 159.77 4.28756 -0.659581 0
M  V30 1662 H 160.441 5.50306 0.432109 0
M  V30 1663 H 162.917 3.88784 1.48278 0
M  V30 1664 H 161.793 4.95358 2.36457 0
M  V30 1665 H 162.054 3.31099 2.92961 0
M  V30 1666 N 161.113 -0.173488 1.56642 0
M  V30 1667 C 162.043 -1.2171 1.99271 0
M  V30 1668 C 163.024 -1.46289 0.867959 0
M  V30 1669 O 164.209 -1.5766 1.13388 0
M  V30 1670 C 161.339 -2.55651 2.35074 0
M  V30 1671 C 160.293 -2.45645 3.50489 0
M  V30 1672 C 159.619 -3.84056 3.72028 0
M  V30 1673 C 160.919 -1.96302 4.84007 0
M  V30 1674 H 162.613 -0.86275 2.867 0
M  V30 1675 H 160.159 -0.413571 1.37933 0
M  V30 1676 H 162.112 -3.2886 2.63494 0
M  V30 1677 H 160.836 -2.92869 1.44552 0
M  V30 1678 H 159.495 -1.7489 3.22194 0
M  V30 1679 H 159.143 -4.18664 2.788 0
M  V30 1680 H 158.843 -3.7823 4.49684 0
M  V30 1681 H 160.367 -4.58854 4.02846 0
M  V30 1682 H 161.781 -2.59284 5.11317 0
M  V30 1683 H 160.178 -2.01429 5.65284 0
M  V30 1684 H 161.248 -0.917226 4.76146 0
M  V30 1685 N 162.591 -1.51276 -0.441967 0
M  V30 1686 C 163.816 -1.67799 -1.21895 0
M  V30 1687 C 164.241 -0.372864 -1.84367 0
M  V30 1688 O 163.599 0.666501 -1.68604 0
M  V30 1689 C 163.647 -2.79199 -2.28211 0
M  V30 1690 O 162.751 -2.42479 -3.33583 0
M  V30 1691 H 162.092 -0.559649 -0.357336 0
M  V30 1692 H 164.622 -1.97815 -0.522522 0
M  V30 1693 H 164.632 -3.03146 -2.73069 0
M  V30 1694 H 163.307 -3.73906 -1.82118 0
M  V30 1695 H 161.884 -2.29087 -2.94234 0
M  V30 1696 N 164.069 0.697108 -1.41344 0
M  V30 1697 C 165.315 1.4593 -1.40827 0
M  V30 1698 C 165.648 1.94193 -0.0167098 0
M  V30 1699 O 164.923 1.69425 0.955263 0
M  V30 1700 C 165.206 2.67229 -2.41373 0
M  V30 1701 C 165.059 2.24741 -3.8963 0
M  V30 1702 C 166.378 3.69423 -2.39196 0
M  V30 1703 H 163.497 0.529303 -0.512842 0
M  V30 1704 H 166.139 0.794112 -1.72609 0
M  V30 1705 H 164.289 3.23982 -2.14401 0
M  V30 1706 H 165.961 1.73327 -4.27499 0
M  V30 1707 H 164.204 1.56542 -4.0457 0
M  V30 1708 H 164.875 3.1177 -4.55525 0
M  V30 1709 H 167.351 3.2234 -2.63128 0
M  V30 1710 H 166.227 4.51907 -3.11563 0
M  V30 1711 H 166.488 4.19012 -1.41001 0
M  V30 1712 N 165.547 1.27147 0.931209 0
M  V30 1713 C 166.793 1.13446 1.68101 0
M  V30 1714 C 167.126 -0.319628 1.91552 0
M  V30 1715 O 166.401 -1.23407 1.50336 0
M  V30 1716 C 166.684 1.91482 3.0497 0
M  V30 1717 C 166.537 3.44855 2.88782 0
M  V30 1718 C 167.856 1.71651 4.05246 0
M  V30 1719 H 164.975 0.413498 0.610072 0
M  V30 1720 H 167.617 1.56261 1.08086 0
M  V30 1721 H 165.767 1.55095 3.56199 0
M  V30 1722 H 167.439 3.9105 2.44698 0
M  V30 1723 H 165.682 3.71373 2.24198 0
M  V30 1724 H 166.353 3.94694 3.85902 0
M  V30 1725 H 168.829 2.0337 3.63015 0
M  V30 1726 H 167.705 2.28651 4.99009 0
M  V30 1727 H 167.966 0.663555 4.37092 0
M  V30 1728 N 167.025 -1.13721 1.09112 0
M  V30 1729 C 167.955 -2.21148 0.749385 0
M  V30 1730 C 168.936 -1.6792 -0.271475 0
M  V30 1731 O 170.121 -1.93693 -0.140251 0
M  V30 1732 C 167.251 -3.46905 0.165659 0
M  V30 1733 C 166.205 -4.13203 1.11567 0
M  V30 1734 C 165.531 -5.33248 0.393809 0
M  V30 1735 C 166.831 -4.60912 2.45678 0
M  V30 1736 H 168.525 -2.4999 1.64758 0
M  V30 1737 H 166.071 -1.20156 0.793626 0
M  V30 1738 H 168.024 -4.21313 -0.085466 0
M  V30 1739 H 166.748 -3.17449 -0.767714 0
M  V30 1740 H 165.407 -3.40758 1.35202 0
M  V30 1741 H 165.055 -5.00054 -0.543599 0
M  V30 1742 H 164.755 -5.78552 1.02721 0
M  V30 1743 H 166.279 -6.10413 0.150908 0
M  V30 1744 H 167.693 -5.26759 2.26269 0
M  V30 1745 H 166.09 -5.16944 3.04776 0
M  V30 1746 H 167.16 -3.75603 3.06677 0
M  V30 1747 N 168.503 -0.877838 -1.30888 0
M  V30 1748 C 169.731 -0.507414 -2.00581 0
M  V30 1749 C 170.146 0.902216 -1.65848 0
M  V30 1750 O 169.503 1.59225 -0.891831 0
M  V30 1751 C 169.554 -0.664162 -3.55347 0
M  V30 1752 O 169.275 -2.01829 -3.8884 0
M  V30 1753 C 170.776 -0.295787 -4.42312 0
M  V30 1754 H 167.996 -0.196866 -0.641471 0
M  V30 1755 H 170.54 -1.18117 -1.66939 0
M  V30 1756 H 168.695 -0.0378619 -3.87381 0
M  V30 1757 H 169.109 -2.03174 -4.8355 0
M  V30 1758 H 170.583 -0.456388 -5.5011 0
M  V30 1759 H 171.06 0.765663 -4.32475 0
M  V30 1760 H 171.666 -0.898113 -4.15709 0
M  V30 1761 N 169.982 1.44106 -0.638065 0
M  V30 1762 C 171.393 1.85316 -0.226894 0
M  V30 1763 C 171.744 1.53399 1.22324 0
M  V30 1764 O 170.869 0.975463 1.93167 0
M  V30 1765 C 171.464 3.3637 -0.405013 0
M  V30 1766 C 170.023 3.76369 -0.0482902 0
M  V30 1767 C 169.17 2.67921 -0.715108 0
M  V30 1768 H 172.121 1.34474 -0.842764 0
M  V30 1769 H 172.142 3.7885 0.354 0
M  V30 1770 H 171.654 3.59569 -1.46053 0
M  V30 1771 H 169.755 3.58784 1.00522 0
M  V30 1772 H 169.868 4.76856 -0.463187 0
M  V30 1773 H 168.232 2.54259 -0.149753 0
M  V30 1774 H 169.015 2.93951 -1.77335 0
M  V30 1775 N 171.46 0.379036 1.52974 0
M  V30 1776 C 172.41 -0.477772 2.22938 0
M  V30 1777 C 173.394 -1.03792 1.22948 0
M  V30 1778 O 174.586 -0.965725 1.48333 0
M  V30 1779 C 171.715 -1.60994 3.03209 0
M  V30 1780 C 170.801 -1.06203 4.10587 0
M  V30 1781 N 171.192 -0.238214 5.05239 0
M  V30 1782 C 169.49 -1.33554 4.25534 0
M  V30 1783 C 170.191 0.0633235 5.81666 0
M  V30 1784 N 169.167 -0.537901 5.40932 0
M  V30 1785 H 172.969 0.158295 2.93473 0
M  V30 1786 H 170.483 0.187778 1.61311 0
M  V30 1787 H 172.48 -2.23607 3.5186 0
M  V30 1788 H 171.14 -2.24893 2.34207 0
M  V30 1789 H 172.151 0.123695 5.17752 0
M  V30 1790 H 168.828 -1.97632 3.6776 0
M  V30 1791 H 170.218 0.730161 6.67921 0
M  V30 1792 N 172.938 -1.57226 0.108567 0
M  V30 1793 C 173.888 -2.11305 -0.856396 0
M  V30 1794 C 174.872 -1.03129 -1.23504 0
M  V30 1795 O 176.064 -1.29381 -1.20787 0
M  V30 1796 C 173.193 -2.70771 -2.11041 0
M  V30 1797 C 172.279 -3.86011 -1.7566 0
M  V30 1798 N 172.67 -4.93492 -1.10902 0
M  V30 1799 C 170.968 -3.95999 -2.05185 0
M  V30 1800 C 171.669 -5.73984 -0.944308 0
M  V30 1801 N 170.645 -5.2346 -1.46596 0
M  V30 1802 H 174.447 -2.91784 -0.352002 0
M  V30 1803 H 171.961 -1.62126 -0.0942324 0
M  V30 1804 H 173.958 -3.07851 -2.81128 0
M  V30 1805 H 172.618 -1.91751 -2.62034 0
M  V30 1806 H 173.629 -5.1208 -0.774235 0
M  V30 1807 H 170.306 -3.28007 -2.58298 0
M  V30 1808 H 171.696 -6.70479 -0.436813 0
M  V30 1809 N 174.416 0.165178 -1.56732 0
M  V30 1810 C 175.663 0.880807 -1.8234 0
M  V30 1811 C 175.991 1.81977 -0.686621 0
M  V30 1812 O 175.246 1.92971 0.325697 0
M  V30 1813 C 175.545 1.70405 -3.1416 0
M  V30 1814 C 175.211 0.913475 -4.4155 0
M  V30 1815 C 173.873 0.695303 -4.7615 0
M  V30 1816 C 176.225 0.359349 -5.1996 0
M  V30 1817 C 173.553 -0.0879947 -5.86634 0
M  V30 1818 C 175.905 -0.410893 -6.31264 0
M  V30 1819 C 174.569 -0.639808 -6.64427 0
M  V30 1820 H 173.839 0.32231 -0.667231 0
M  V30 1821 H 176.486 0.145402 -1.90947 0
M  V30 1822 H 174.791 2.50903 -3.00923 0
M  V30 1823 H 176.488 2.26091 -3.31186 0
M  V30 1824 H 173.078 1.09357 -4.14414 0
M  V30 1825 H 177.262 0.515228 -4.93618 0
M  V30 1826 H 172.518 -0.27503 -6.10781 0
M  V30 1827 H 176.692 -0.847494 -6.91224 0
M  V30 1828 H 174.319 -1.24864 -7.49875 0
M  V30 1829 N 175.894 1.51508 0.433938 0
M  V30 1830 C 176.844 1.69451 1.52546 0
M  V30 1831 C 177.828 0.548474 1.51263 0
M  V30 1832 O 179.02 0.804529 1.57659 0
M  V30 1833 C 176.149 1.82604 2.90707 0
M  V30 1834 C 175.235 3.03002 2.96733 0
M  V30 1835 N 175.626 4.26121 2.72496 0
M  V30 1836 C 173.924 3.02327 3.27894 0
M  V30 1837 C 174.625 5.07407 2.84452 0
M  V30 1838 N 173.601 4.42126 3.16269 0
M  V30 1839 H 177.403 2.62305 1.32564 0
M  V30 1840 H 174.917 1.49202 0.641297 0
M  V30 1841 H 176.914 1.93569 3.69238 0
M  V30 1842 H 175.574 0.909339 3.11707 0
M  V30 1843 H 176.585 4.55009 2.4736 0
M  V30 1844 H 173.262 2.20301 3.54646 0
M  V30 1845 H 174.652 6.15422 2.69639 0
M  V30 1846 N 177.372 -0.689602 1.41712 0
M  V30 1847 C 178.282 -1.83314 1.46401 0
M  V30 1848 C 179.298 -1.7036 0.35405 0
M  V30 1849 O 180.474 -1.92171 0.602692 0
M  V30 1850 C 177.539 -3.19344 1.34982 0
M  V30 1851 C 176.6 -3.44363 2.56344 0
M  V30 1852 C 175.833 -4.73904 2.45461 0
M  V30 1853 O 176.056 -5.508 1.48241 0
M  V30 1854 O 174.99 -4.99839 3.35328 0
M  V30 1855 H 178.816 -1.82314 2.42889 0
M  V30 1856 H 176.401 -0.843438 1.23315 0
M  V30 1857 H 178.283 -4.00547 1.3092 0
M  V30 1858 H 176.958 -3.21014 0.41612 0
M  V30 1859 H 175.865 -2.63067 2.65982 0
M  V30 1860 H 177.198 -3.47512 3.48563 0
M  V30 1861 N 178.85 -1.27639 -0.924453 0
M  V30 1862 C 180.075 -1.17101 -1.71179 0
M  V30 1863 C 180.5 0.268134 -1.86179 0
M  V30 1864 O 179.858 1.19415 -1.36418 0
M  V30 1865 C 179.906 -1.86313 -3.08739 0
M  V30 1866 O 179.01 -1.16331 -3.95652 0
M  V30 1867 H 178.351 -0.407091 -0.524569 0
M  V30 1868 H 180.881 -1.68767 -1.15666 0
M  V30 1869 H 180.891 -1.938 -3.59034 0
M  V30 1870 H 179.566 -2.91001 -2.97138 0
M  V30 1871 H 178.143 -1.16935 -3.54091 0
M  V30 1872 N 180.328 1.1314 -1.09713 0
M  V30 1873 C 181.275 2.18642 -0.739196 0
M  V30 1874 C 182.245 1.63706 0.280978 0
M  V30 1875 O 183.43 1.90111 0.161946 0
M  V30 1876 C 180.57 3.44685 -0.169102 0
M  V30 1877 C 179.683 4.13711 -1.24367 0
M  V30 1878 C 178.818 5.27379 -0.636019 0
M  V30 1879 C 177.857 5.88259 -1.69169 0
M  V30 1880 N 176.994 6.93352 -1.10485 0
M  V30 1881 H 181.834 2.48607 -1.64312 0
M  V30 1882 H 179.371 1.22066 -0.820875 0
M  V30 1883 H 181.329 4.16815 0.179256 0
M  V30 1884 H 179.959 3.15161 0.698079 0
M  V30 1885 H 179.011 3.39835 -1.70927 0
M  V30 1886 H 180.323 4.55037 -2.04311 0
M  V30 1887 H 179.477 6.06238 -0.236677 0
M  V30 1888 H 178.216 4.8731 0.194928 0
M  V30 1889 H 177.221 5.08092 -2.10055 0
M  V30 1890 H 178.446 6.30399 -2.52536 0
M  V30 1891 H 176.392 6.55335 -0.295234 0
M  V30 1892 H 176.309 7.33236 -1.84121 0
M  V30 1893 H 177.577 7.76057 -0.73181 0
M  V30 1894 N 181.806 0.884767 1.30421 0
M  V30 1895 C 182.716 0.355398 2.31892 0
M  V30 1896 C 183.732 -0.542261 1.65335 0
M  V30 1897 O 184.908 -0.435432 1.96637 0
M  V30 1898 C 181.973 -0.421661 3.44126 0
M  V30 1899 C 181.034 0.505727 4.26311 0
M  V30 1900 C 180.267 -0.234343 5.33185 0
M  V30 1901 O 180.49 -1.46045 5.51386 0
M  V30 1902 O 179.424 0.415443 6.00465 0
M  V30 1903 H 183.25 1.19685 2.79122 0
M  V30 1904 H 180.835 0.648596 1.34587 0
M  V30 1905 H 182.717 -0.861641 4.12497 0
M  V30 1906 H 181.392 -1.23942 2.99032 0
M  V30 1907 H 180.299 0.994513 3.60639 0
M  V30 1908 H 181.632 1.28948 4.75009 0
M  V30 1909 N 183.284 -1.43765 0.645699 0
M  V30 1910 C 184.234 -2.27884 -0.0726442 0
M  V30 1911 C 185.218 -1.39483 -0.802086 0
M  V30 1912 O 186.41 -1.63174 -0.685791 0
M  V30 1913 C 183.539 -3.27055 -1.04356 0
M  V30 1914 C 182.625 -4.22944 -0.312985 0
M  V30 1915 N 183.016 -5.01391 0.666386 0
M  V30 1916 C 181.314 -4.42528 -0.55546 0
M  V30 1917 C 182.015 -5.71217 1.09935 0
M  V30 1918 N 180.991 -5.41856 0.435137 0
M  V30 1919 H 184.793 -2.85949 0.678988 0
M  V30 1920 H 182.307 -1.55378 0.472368 0
M  V30 1921 H 184.304 -3.86089 -1.57292 0
M  V30 1922 H 182.964 -2.70551 -1.79534 0
M  V30 1923 H 183.975 -5.07252 1.04481 0
M  V30 1924 H 180.652 -3.97104 -1.28899 0
M  V30 1925 H 182.042 -6.44202 1.90929 0
M  V30 1926 N 184.763 -0.387143 -1.52771 0
M  V30 1927 C 185.713 0.465942 -2.23188 0
M  V30 1928 C 186.697 1.03138 -1.23496 0
M  V30 1929 O 187.889 0.957845 -1.48843 0
M  V30 1930 C 185.018 1.59384 -3.04059 0
M  V30 1931 C 184.104 1.04024 -4.11144 0
M  V30 1932 N 184.495 0.211416 -5.05358 0
M  V30 1933 C 182.793 1.31295 -4.26237 0
M  V30 1934 C 183.494 -0.0941698 -5.81624 0
M  V30 1935 N 182.47 0.509207 -5.4121 0
M  V30 1936 H 186.272 -0.173856 -2.93385 0
M  V30 1937 H 183.786 -0.19633 -1.61209 0
M  V30 1938 H 185.783 2.21738 -3.53041 0
M  V30 1939 H 184.443 2.23648 -2.35397 0
M  V30 1940 H 185.454 -0.151151 -5.17679 0
M  V30 1941 H 182.131 1.95679 -3.68803 0
M  V30 1942 H 183.521 -0.765572 -6.67524 0
M  V30 1943 N 186.241 1.57166 -0.116904 0
M  V30 1944 C 187.518 1.86645 0.585049 0
M  V30 1945 C 187.898 1.0177 1.84949 0
M  V30 1946 O 187.246 0.0960379 2.28298 0
M  V30 1947 C 187.456 3.37736 0.879507 0
M  V30 1948 C 188.804 4.06289 1.23348 0
M  V30 1949 O 189.828 3.42743 0.969836 0
M  V30 1950 O 188.687 5.18455 1.7282 0
M  V30 1951 H 185.781 0.772593 0.295007 0
M  V30 1952 H 188.327 1.69025 -0.151249 0
M  V30 1953 H 187.099 3.91296 -0.0166136 0
M  V30 1954 H 186.722 3.6078 1.67103 0
M  V30 1955 N 187.719 -0.156864 1.56817 0
M  V30 1956 C 188.966 -0.871125 1.82805 0
M  V30 1957 C 189.294 -1.81611 0.696262 0
M  V30 1958 O 188.549 -1.93141 -0.315459 0
M  V30 1959 C 188.848 -1.68737 3.1506 0
M  V30 1960 C 188.514 -0.890045 4.42028 0
M  V30 1961 C 187.176 -0.670042 4.76512 0
M  V30 1962 C 189.528 -0.331769 5.20143 0
M  V30 1963 C 186.856 0.119104 5.86579 0
M  V30 1964 C 189.208 0.444365 6.31037 0
M  V30 1965 C 187.872 0.675035 6.64078 0
M  V30 1966 H 187.142 -0.318767 0.668931 0
M  V30 1967 H 189.789 -0.135274 1.91022 0
M  V30 1968 H 188.094 -2.49304 3.0225 0
M  V30 1969 H 189.791 -2.24331 3.3238 0
M  V30 1970 H 186.381 -1.07157 4.14988 0
M  V30 1971 H 190.565 -0.489043 4.93885 0
M  V30 1972 H 185.821 0.307417 6.10627 0
M  V30 1973 H 189.995 0.884139 6.90765 0
M  V30 1974 H 187.622 1.28839 7.49203 0
M  V30 1975 N 189.197 -1.51736 -0.425897 0
M  V30 1976 C 190.444 -1.6497 -1.17436 0
M  V30 1977 C 190.772 -0.371445 -1.9092 0
M  V30 1978 O 190.027 0.644963 -1.84767 0
M  V30 1979 C 190.326 -2.81103 -2.20717 0
M  V30 1980 C 189.992 -4.19954 -1.64162 0
M  V30 1981 C 188.654 -4.57725 -1.48462 0
M  V30 1982 C 191.006 -5.06552 -1.22696 0
M  V30 1983 C 188.334 -5.79789 -0.897873 0
M  V30 1984 C 190.686 -6.29205 -0.654464 0
M  V30 1985 C 189.35 -6.6574 -0.484456 0
M  V30 1986 H 188.62 -0.603668 -0.429727 0
M  V30 1987 H 191.267 -1.85798 -0.463829 0
M  V30 1988 H 189.572 -2.54542 -2.97852 0
M  V30 1989 H 191.269 -2.8854 -2.78471 0
M  V30 1990 H 187.859 -3.90181 -1.77361 0
M  V30 1991 H 192.043 -4.77968 -1.33642 0
M  V30 1992 H 187.299 -6.06733 -0.75402 0
M  V30 1993 H 191.473 -6.95643 -0.324694 0
M  V30 1994 H 189.1 -7.60195 -0.0276833 0
M  V30 1995 N 190.675 0.682077 -1.42076 0
M  V30 1996 C 191.625 1.78823 -1.41444 0
M  V30 1997 C 192.609 1.58323 -0.28681 0
M  V30 1998 O 193.801 1.68926 -0.528498 0
M  V30 1999 C 190.93 3.17232 -1.3122 0
M  V30 2000 C 190.016 3.4338 -2.489 0
M  V30 2001 N 190.407 3.40152 -3.7434 0
M  V30 2002 C 188.705 3.73986 -2.43003 0
M  V30 2003 C 189.406 3.65581 -4.52466 0
M  V30 2004 N 188.382 3.85989 -3.8277 0
M  V30 2005 H 192.184 1.7471 -2.36334 0
M  V30 2006 H 189.698 0.882622 -1.36321 0
M  V30 2007 H 191.695 3.96489 -1.2885 0
M  V30 2008 H 190.355 3.22547 -0.373263 0
M  V30 2009 H 191.366 3.20221 -4.07037 0
M  V30 2010 H 188.043 3.86591 -1.57651 0
M  V30 2011 H 189.433 3.69108 -5.61435 0
M  V30 2012 N 192.153 1.28127 0.917671 0
M  V30 2013 C 193.116 1.11744 2.00115 0
M  V30 2014 C 194.116 0.0583052 1.60694 0
M  V30 2015 O 195.306 0.303755 1.71531 0
M  V30 2016 C 192.438 0.704862 3.33533 0
M  V30 2017 H 193.631 2.07966 2.16079 0
M  V30 2018 H 191.184 1.11058 1.09981 0
M  V30 2019 H 191.919 -0.258299 3.2327 0
M  V30 2020 H 191.704 1.4699 3.63505 0
M  V30 2021 H 193.194 0.612768 4.1308 0
M  V30 2022 N 193.631 -1.12557 1.10312 0
M  V30 2023 C 194.581 -2.16331 0.720076 0
M  V30 2024 C 195.565 -1.58616 -0.270115 0
M  V30 2025 O 196.757 -1.76823 -0.0790507 0
M  V30 2026 C 193.886 -3.42963 0.152113 0
M  V30 2027 C 192.972 -4.07663 1.16927 0
M  V30 2028 N 193.363 -4.47392 2.35953 0
M  V30 2029 C 191.661 -4.34425 1.0095 0
M  V30 2030 C 192.362 -4.97932 3.0073 0
M  V30 2031 N 191.338 -4.93358 2.28252 0
M  V30 2032 H 195.14 -2.44813 1.62616 0
M  V30 2033 H 192.654 -1.29449 0.980654 0
M  V30 2034 H 194.651 -4.16664 -0.14037 0
M  V30 2035 H 193.311 -3.1595 -0.748701 0
M  V30 2036 H 194.322 -4.39802 2.73486 0
M  V30 2037 H 190.999 -4.17177 0.164134 0
M  V30 2038 H 192.389 -5.38397 4.01969 0
M  V30 2039 N 195.109 -0.891671 -1.2995 0
M  V30 2040 C 196.356 -0.513501 -1.95881 0
M  V30 2041 C 196.684 0.938655 -1.70351 0
M  V30 2042 O 195.939 1.67936 -1.00478 0
M  V30 2043 C 196.238 -0.742868 -3.49594 0
M  V30 2044 C 195.904 -2.17114 -3.95186 0
M  V30 2045 C 194.566 -2.56169 -4.07346 0
M  V30 2046 C 196.918 -3.10162 -4.18866 0
M  V30 2047 C 194.246 -3.87469 -4.4055 0
M  V30 2048 C 196.598 -4.41001 -4.53542 0
M  V30 2049 C 195.262 -4.79941 -4.63911 0
M  V30 2050 H 194.532 -0.187903 -0.71678 0
M  V30 2051 H 197.179 -1.1288 -1.54694 0
M  V30 2052 H 195.484 -0.044586 -3.91775 0
M  V30 2053 H 197.181 -0.429767 -3.9869 0
M  V30 2054 H 193.771 -1.85801 -3.86233 0
M  V30 2055 H 197.955 -2.81206 -4.08946 0
M  V30 2056 H 193.211 -4.17371 -4.46779 0
M  V30 2057 H 197.385 -5.13133 -4.70815 0
M  V30 2058 H 195.012 -5.81719 -4.89395 0
M  V30 2059 N 196.587 1.43421 -0.653314 0
M  V30 2060 C 197.534 2.30768 0.0382271 0
M  V30 2061 C 198.504 1.44755 0.814576 0
M  V30 2062 O 199.689 1.73624 0.791162 0
M  V30 2063 C 196.829 3.30336 0.998599 0
M  V30 2064 C 195.942 4.31448 0.218342 0
M  V30 2065 C 195.077 5.18098 1.17252 0
M  V30 2066 C 194.116 6.10902 0.382702 0
M  V30 2067 N 193.253 6.90176 1.28848 0
M  V30 2068 H 198.093 2.89357 -0.712511 0
M  V30 2069 H 195.63 1.42548 -0.363128 0
M  V30 2070 H 197.588 3.86572 1.56901 0
M  V30 2071 H 196.218 2.73397 1.71621 0
M  V30 2072 H 195.27 3.77506 -0.46836 0
M  V30 2073 H 196.582 4.97227 -0.395812 0
M  V30 2074 H 195.736 5.7896 1.81356 0
M  V30 2075 H 194.475 4.52444 1.82058 0
M  V30 2076 H 193.48 5.49128 -0.27169 0
M  V30 2077 H 194.705 6.78598 -0.260957 0
M  V30 2078 H 192.651 6.27171 1.92334 0
M  V30 2079 H 192.568 7.52478 0.728887 0
M  V30 2080 H 193.836 7.55543 1.91766 0
M  V30 2081 N 198.065 0.39524 1.52563 0
M  V30 2082 C 199.311 -0.185318 2.01952 0
M  V30 2083 C 199.644 -1.45964 1.28095 0
M  V30 2084 O 198.919 -1.90689 0.38315 0
M  V30 2085 C 199.202 -0.447193 3.57312 0
M  V30 2086 C 199.055 0.842828 4.41833 0
M  V30 2087 C 200.374 -1.23529 4.22408 0
M  V30 2088 H 197.493 -0.0658788 0.73405 0
M  V30 2089 H 200.135 0.525975 1.82575 0
M  V30 2090 H 198.285 -1.05312 3.73954 0
M  V30 2091 H 199.957 1.4795 4.36931 0
M  V30 2092 H 198.2 1.45686 4.08605 0
M  V30 2093 H 198.871 0.614165 5.48573 0
M  V30 2094 H 201.347 -0.722445 4.0978 0
M  V30 2095 H 200.223 -1.38727 5.3108 0
M  V30 2096 H 200.484 -2.25213 3.80436 0
M  V30 2097 N 199.544 -1.57102 0.125237 0
M  V30 2098 C 200.491 -2.15641 -0.822655 0
M  V30 2099 C 201.461 -1.08313 -1.25927 0
M  V30 2100 O 202.646 -1.36251 -1.33567 0
M  V30 2101 C 199.786 -2.76504 -2.06494 0
M  V30 2102 C 198.899 -3.98158 -1.67612 0
M  V30 2103 C 198.034 -4.47088 -2.86854 0
M  V30 2104 C 197.073 -5.6126 -2.44242 0
M  V30 2105 N 196.21 -6.04905 -3.56419 0
M  V30 2106 H 201.05 -2.96313 -0.316625 0
M  V30 2107 H 198.587 -1.46388 -0.144588 0
M  V30 2108 H 200.545 -3.09925 -2.79289 0
M  V30 2109 H 199.175 -1.98512 -2.54545 0
M  V30 2110 H 198.227 -3.70858 -0.846661 0
M  V30 2111 H 199.539 -4.80934 -1.32301 0
M  V30 2112 H 198.693 -4.82451 -3.67867 0
M  V30 2113 H 197.432 -3.63275 -3.25396 0
M  V30 2114 H 196.437 -5.25495 -1.61663 0
M  V30 2115 H 197.662 -6.46843 -2.0681 0
M  V30 2116 H 195.608 -5.24032 -3.94623 0
M  V30 2117 H 195.525 -6.82552 -3.25051 0
M  V30 2118 H 196.793 -6.44907 -4.37853 0
M  V30 2119 N 201.022 0.148545 -1.56898 0
M  V30 2120 C 202.27 0.859717 -1.82902 0
M  V30 2121 C 202.591 1.81775 -0.70588 0
M  V30 2122 O 201.861 1.93994 0.272586 0
M  V30 2123 H 200.441 0.320469 -0.674766 0
M  V30 2124 H 203.103 0.142918 -1.94375 0
M  V30 2125 H 202.199 1.4229 -2.77777 0
M  V30 2126 N 202.5 1.5196 0.417844 0
M  V30 2127 C 203.746 1.65836 1.16732 0
M  V30 2128 C 204.079 0.382881 1.90388 0
M  V30 2129 O 203.354 -0.618368 1.84408 0
M  V30 2130 C 203.637 2.87466 2.16876 0
M  V30 2131 C 203.49 4.25041 1.47174 0
M  V30 2132 C 204.809 3.04613 3.17646 0
M  V30 2133 H 201.928 0.603515 0.423011 0
M  V30 2134 H 204.57 1.84494 0.454105 0
M  V30 2135 H 202.72 2.71689 2.777 0
M  V30 2136 H 204.392 4.52527 0.895376 0
M  V30 2137 H 202.635 4.26843 0.773806 0
M  V30 2138 H 203.306 5.06176 2.20204 0
M  V30 2139 H 205.782 3.1923 2.66892 0
M  V30 2140 H 204.658 3.91247 3.8499 0
M  V30 2141 H 204.919 2.17541 3.84874 0
M  V30 2142 N 203.978 -0.674533 1.42435 0
M  V30 2143 C 204.888 -1.81751 1.48337 0
M  V30 2144 C 205.904 -1.69975 0.372099 0
M  V30 2145 O 207.08 -1.91521 0.62304 0
M  V30 2146 C 204.145 -3.17895 1.38361 0
M  V30 2147 C 203.206 -3.41625 2.59982 0
M  V30 2148 C 202.439 -4.71274 2.50473 0
M  V30 2149 O 202.662 -5.49197 1.54075 0
M  V30 2150 O 201.596 -4.96254 3.4061 0
M  V30 2151 H 205.422 -1.79728 2.44809 0
M  V30 2152 H 203.007 -0.830312 1.24202 0
M  V30 2153 H 204.889 -3.99136 1.35161 0
M  V30 2154 H 203.564 -3.20555 0.450144 0
M  V30 2155 H 202.471 -2.60231 2.68757 0
M  V30 2156 H 203.804 -3.43796 3.52229 0
M  V30 2157 N 205.456 -1.28612 -0.910864 0
M  V30 2158 C 206.419 -1.12803 -1.9952 0
M  V30 2159 C 207.419 -0.0668264 -1.60661 0
M  V30 2160 O 208.609 -0.312847 -1.71368 0
M  V30 2161 C 205.741 -0.72254 -3.33155 0
M  V30 2162 H 206.934 -2.09109 -2.14973 0
M  V30 2163 H 204.487 -1.11639 -1.09391 0
M  V30 2164 H 205.222 0.241152 -3.23402 0
M  V30 2165 H 205.007 -1.48916 -3.62721 0
M  V30 2166 H 206.497 -0.634666 -4.12749 0
M  V30 2167 N 206.934 1.1197 -1.10907 0
M  V30 2168 C 207.897 2.16031 -0.765707 0
M  V30 2169 C 208.897 1.59393 0.212235 0
M  V30 2170 O 210.087 1.74196 -0.0115441 0
M  V30 2171 C 207.219 3.40632 -0.135053 0
M  V30 2172 H 208.412 2.47919 -1.68748 0
M  V30 2173 H 205.965 1.27061 -0.910226 0
M  V30 2174 H 206.7 3.14348 0.797218 0
M  V30 2175 H 206.485 3.8302 -0.838937 0
M  V30 2176 H 207.975 4.17505 0.0892469 0
M  V30 2177 N 208.412 0.89855 1.29475 0
M  V30 2178 C 209.362 0.346767 2.25348 0
M  V30 2179 C 210.346 -0.532509 1.51833 0
M  V30 2180 O 211.538 -0.374714 1.72988 0
M  V30 2181 C 208.667 -0.425681 3.40651 0
M  V30 2182 C 207.753 0.46845 4.21505 0
M  V30 2183 N 208.144 1.57514 4.80648 0
M  V30 2184 C 206.442 0.26603 4.45206 0
M  V30 2185 C 207.143 2.12889 5.41344 0
M  V30 2186 N 206.119 1.42208 5.24669 0
M  V30 2187 H 209.921 1.19219 2.68634 0
M  V30 2188 H 207.435 0.749473 1.44072 0
M  V30 2189 H 209.432 -0.837716 4.08397 0
M  V30 2190 H 208.092 -1.26838 2.98902 0
M  V30 2191 H 209.103 1.95789 4.79465 0
M  V30 2192 H 205.78 -0.538394 4.14014 0
M  V30 2193 H 207.17 3.05901 5.98226 0
M  V30 2194 N 209.89 -1.43072 0.660911 0
M  V30 2195 C 210.853 -2.29194 -0.0166406 0
M  V30 2196 C 211.853 -1.42609 -0.742912 0
M  V30 2197 O 213.043 -1.64155 -0.583004 0
M  V30 2198 C 210.175 -3.24831 -1.0343 0
M  V30 2199 H 211.368 -2.90596 0.741208 0
M  V30 2200 H 208.921 -1.5048 0.422532 0
M  V30 2201 H 209.656 -2.68339 -1.82111 0
M  V30 2202 H 209.441 -3.88676 -0.517082 0
M  V30 2203 H 210.931 -3.89451 -1.50723 0
M  V30 2204 N 211.368 -0.403325 -1.52352 0
M  V30 2205 C 212.331 0.413051 -2.25447 0
M  V30 2206 C 213.331 0.978513 -1.276 0
M  V30 2207 O 214.521 0.858305 -1.51587 0
M  V30 2208 C 211.653 1.58087 -3.02029 0
M  V30 2209 H 212.846 -0.227094 -2.99039 0
M  V30 2210 H 210.399 -0.155722 -1.55522 0
M  V30 2211 H 211.134 2.25804 -2.32772 0
M  V30 2212 H 210.919 1.18195 -3.73861 0
M  V30 2213 H 212.409 2.1585 -3.57489 0
M  V30 2214 N 212.846 1.57033 -0.133567 0
M  V30 2215 C 213.776 2.1909 0.807567 0
M  V30 2216 C 214.757 1.13517 1.26681 0
M  V30 2217 O 215.942 1.41809 1.32679 0
M  V30 2218 C 213.072 2.80188 2.05212 0
M  V30 2219 C 212.026 3.91471 1.73015 0
M  V30 2220 C 211.352 4.39443 3.04622 0
M  V30 2221 C 212.652 5.12886 0.987168 0
M  V30 2222 H 214.346 2.97988 0.290403 0
M  V30 2223 H 211.892 1.43335 0.138239 0
M  V30 2224 H 213.845 3.22264 2.71521 0
M  V30 2225 H 212.569 1.98601 2.59278 0
M  V30 2226 H 211.228 3.49993 1.0909 0
M  V30 2227 H 210.876 3.54695 3.56651 0
M  V30 2228 H 210.576 5.14495 2.83847 0
M  V30 2229 H 212.1 4.8418 3.72024 0
M  V30 2230 H 213.514 5.51891 1.55208 0
M  V30 2231 H 211.911 5.93615 0.87985 0
M  V30 2232 H 212.981 4.84894 -0.0235286 0
M  V30 2233 N 214.325 -0.140222 1.56975 0
M  V30 2234 C 215.257 -1.19818 1.95388 0
M  V30 2235 C 216.27 -1.38816 0.850525 0
M  V30 2236 O 217.459 -1.38267 1.12891 0
M  V30 2237 C 214.559 -2.56189 2.21857 0
M  V30 2238 C 213.732 -2.58077 3.5315 0
M  V30 2239 C 212.791 -3.76037 3.6808 0
M  V30 2240 O 211.817 -3.60598 4.40406 0
M  V30 2241 N 213.019 -4.93763 3.05251 0
M  V30 2242 H 215.784 -0.871609 2.86746 0
M  V30 2243 H 213.345 -0.32972 1.58507 0
M  V30 2244 H 215.337 -3.33623 2.2908 0
M  V30 2245 H 213.907 -2.81111 1.36731 0
M  V30 2246 H 213.127 -1.6651 3.57307 0
M  V30 2247 H 214.415 -2.56377 4.39486 0
M  V30 2248 H 213.813 -5.09209 2.46419 0
M  V30 2249 H 212.37 -5.68949 3.18026 0
M  V30 2250 N 215.803 -1.52179 -0.40978 0
M  V30 2251 C 217.052 -1.65434 -1.15388 0
M  V30 2252 C 217.365 -0.390056 -1.91671 0
M  V30 2253 O 218.571 -0.402399 -2.68501 0
M  V30 2254 C 217.027 -2.92279 -2.10003 0
M  V30 2255 C 216.635 -4.25813 -1.39239 0
M  V30 2256 C 218.379 -3.14897 -2.84675 0
M  V30 2257 C 216.286 -5.43782 -2.32498 0
M  V30 2258 H 215.216 -0.616267 -0.434432 0
M  V30 2259 H 217.867 -1.78666 -0.418401 0
M  V30 2260 H 216.249 -2.72744 -2.871 0
M  V30 2261 H 217.423 -4.55828 -0.675099 0
M  V30 2262 H 215.738 -4.09292 -0.766097 0
M  V30 2263 H 218.335 -4.0021 -3.54593 0
M  V30 2264 H 218.678 -2.29103 -3.47588 0
M  V30 2265 H 219.211 -3.34901 -2.14677 0
M  V30 2266 H 215.95 -6.3192 -1.74233 0
M  V30 2267 H 215.47 -5.18106 -3.02201 0
M  V30 2268 H 217.149 -5.76834 -2.93038 0
M  V30 2269 N 217.281 0.66697 -1.42791 0
M  V30 2270 C 218.527 1.4291 -1.43891 0
M  V30 2271 C 218.86 1.94114 -0.0578972 0
M  V30 2272 O 218.135 1.71414 0.91911 0
M  V30 2273 C 218.418 2.62049 -2.46987 0
M  V30 2274 C 218.271 2.16426 -3.94309 0
M  V30 2275 C 219.59 3.64266 -2.46978 0
M  V30 2276 H 216.709 0.518306 -0.523954 0
M  V30 2277 H 219.351 0.757321 -1.74255 0
M  V30 2278 H 217.501 3.19361 -2.21225 0
M  V30 2279 H 219.173 1.64221 -4.31079 0
M  V30 2280 H 217.416 1.47925 -4.078 0
M  V30 2281 H 218.087 3.02038 -4.62036 0
M  V30 2282 H 220.563 3.16686 -2.69906 0
M  V30 2283 H 219.439 4.45196 -3.21079 0
M  V30 2284 H 219.7 4.15927 -1.49857 0
M  V30 2285 N 218.759 1.29093 0.90403 0
M  V30 2286 C 219.984 1.19809 1.69294 0
M  V30 2287 C 220.409 -0.238481 1.86582 0
M  V30 2288 O 219.767 -1.1723 1.383 0
M  V30 2289 C 219.815 1.91202 3.05736 0
M  V30 2290 O 218.919 1.22611 3.93752 0
M  V30 2291 H 218.26 0.415385 0.518027 0
M  V30 2292 H 220.79 1.70586 1.12967 0
M  V30 2293 H 220.8 1.99487 3.55906 0
M  V30 2294 H 219.475 2.95692 2.92471 0
M  V30 2295 H 218.052 1.22554 3.52186 0
M  V30 2296 N 220.237 -1.11381 1.11499 0
M  V30 2297 C 221.147 -2.21019 0.786628 0
M  V30 2298 C 222.163 -1.72597 -0.220507 0
M  V30 2299 O 223.339 -2.01321 -0.0565251 0
M  V30 2300 C 220.404 -3.459 0.235333 0
M  V30 2301 C 219.465 -4.09107 1.30115 0
M  V30 2302 C 218.698 -5.28027 0.776068 0
M  V30 2303 O 218.921 -5.6904 -0.393661 0
M  V30 2304 O 217.855 -5.81835 1.54114 0
M  V30 2305 H 221.681 -2.51521 1.70209 0
M  V30 2306 H 219.266 -1.19928 0.890928 0
M  V30 2307 H 221.148 -4.21346 -0.067715 0
M  V30 2308 H 219.823 -3.17049 -0.652828 0
M  V30 2309 H 218.73 -3.35391 1.65722 0
M  V30 2310 H 220.063 -4.42139 2.16273 0
M  V30 2311 N 221.715 -0.905404 -1.28997 0
M  V30 2312 C 223.131 -0.60233 -1.47798 0
M  V30 2313 C 223.331 0.854645 -1.82478 0
M  V30 2314 O 222.387 1.63439 -1.92468 0
M  V30 2315 C 223.7 -1.53306 -2.58685 0
M  V30 2316 C 225.248 -1.53887 -2.72558 0
M  V30 2317 C 225.723 -2.45602 -3.86579 0
M  V30 2318 N 227.214 -2.43681 -3.93921 0
M  V30 2319 C 227.949 -3.11347 -4.81509 0
M  V30 2320 N 227.445 -3.88313 -5.73746 0
M  V30 2321 N 229.238 -3.00476 -4.75048 0
M  V30 2322 H 221.389 -1.84765 -1.04764 0
M  V30 2323 H 223.652 -0.792025 -0.520961 0
M  V30 2324 H 223.358 -2.57141 -2.39941 0
M  V30 2325 H 223.232 -1.25787 -3.55609 0
M  V30 2326 H 225.619 -0.507941 -2.90696 0
M  V30 2327 H 225.7 -1.85447 -1.76191 0
M  V30 2328 H 225.344 -3.48792 -3.69197 0
M  V30 2329 H 225.274 -2.11349 -4.82327 0
M  V30 2330 H 227.765 -1.87767 -3.27951 0
M  V30 2331 H 228.078 -4.36985 -6.37389 0
M  V30 2332 H 226.423 -3.92419 -5.73614 0
M  V30 2333 H 229.614 -2.39858 -4.01977 0
M  V30 2334 H 229.787 -3.53485 -5.43095 0
M  V30 2335 N 223.193 1.4272 -0.668489 0
M  V30 2336 C 224.418 2.06484 -0.194758 0
M  V30 2337 C 224.843 1.49862 1.13679 0
M  V30 2338 O 224.201 0.614582 1.70565 0
M  V30 2339 C 224.249 3.60353 -0.133546 0
M  V30 2340 O 223.353 4.02464 0.899806 0
M  V30 2341 H 222.694 0.656137 -0.10188 0
M  V30 2342 H 225.224 1.82964 -0.915722 0
M  V30 2343 H 225.234 4.07976 0.0447041 0
M  V30 2344 H 223.909 4.00938 -1.1055 0
M  V30 2345 H 222.486 3.66402 0.693109 0
M  V30 2346 N 224.671 0.411399 1.52136 0
M  V30 2347 C 226.087 0.0623865 1.59478 0
M  V30 2348 C 226.287 -1.42554 1.4241 0
M  V30 2349 O 225.343 -2.19263 1.2522 0
M  V30 2350 C 226.656 0.559331 2.95452 0
M  V30 2351 C 228.204 0.517503 3.08692 0
M  V30 2352 C 228.679 0.990994 4.4715 0
M  V30 2353 N 230.17 0.947908 4.53397 0
M  V30 2354 C 230.905 1.28544 5.58806 0
M  V30 2355 N 230.401 1.69454 6.71757 0
M  V30 2356 N 232.194 1.20526 5.49026 0
M  V30 2357 H 224.345 1.37982 1.61477 0
M  V30 2358 H 226.608 0.566977 0.759764 0
M  V30 2359 H 226.314 1.59938 3.1323 0
M  V30 2360 H 226.188 -0.0298014 3.77188 0
M  V30 2361 H 228.575 -0.513505 2.90598 0
M  V30 2362 H 228.656 1.14272 2.28857 0
M  V30 2363 H 228.3 2.02034 4.65988 0
M  V30 2364 H 228.23 0.34257 5.25485 0
M  V30 2365 H 230.721 0.647157 3.72317 0
M  V30 2366 H 231.034 1.93513 7.48179 0
M  V30 2367 H 229.379 1.73359 6.73032 0
M  V30 2368 H 232.57 0.884505 4.59667 0
M  V30 2369 H 232.743 1.47161 6.31069 0
M  V30 2370 N 226.149 -1.5696 0.141893 0
M  V30 2371 C 227.398 -1.95135 -0.510427 0
M  V30 2372 C 227.711 -1.02896 -1.66348 0
M  V30 2373 O 228.917 -1.30629 -2.38009 0
M  V30 2374 C 227.373 -3.46876 -0.959427 0
M  V30 2375 C 226.981 -4.47691 0.166419 0
M  V30 2376 C 228.725 -3.93927 -1.58183 0
M  V30 2377 C 226.632 -5.90636 -0.300565 0
M  V30 2378 H 225.562 -0.728494 -0.194454 0
M  V30 2379 H 228.213 -1.8211 0.22542 0
M  V30 2380 H 226.595 -3.55215 -1.75038 0
M  V30 2381 H 227.769 -4.51043 0.94325 0
M  V30 2382 H 226.084 -4.10527 0.696905 0
M  V30 2383 H 228.681 -4.98158 -1.94275 0
M  V30 2384 H 229.024 -3.3519 -2.46888 0
M  V30 2385 H 229.557 -3.88484 -0.855863 0
M  V30 2386 H 226.296 -6.5318 0.550989 0
M  V30 2387 H 225.816 -5.90655 -1.04338 0
M  V30 2388 H 227.495 -6.42588 -0.754265 0
M  V30 2389 N 227.627 0.131896 -1.57047 0
M  V30 2390 C 228.59 1.14638 -1.98471 0
M  V30 2391 C 229.59 1.35029 -0.873148 0
M  V30 2392 O 230.78 1.31764 -1.13946 0
M  V30 2393 C 227.912 2.50358 -2.31373 0
M  V30 2394 H 229.105 0.79064 -2.8929 0
M  V30 2395 H 226.658 0.375761 -1.51716 0
M  V30 2396 H 227.393 2.90876 -1.43393 0
M  V30 2397 H 227.178 2.36915 -3.12432 0
M  V30 2398 H 228.668 3.23395 -2.64207 0
M  V30 2399 N 229.106 1.52395 0.401703 0
M  V30 2400 C 230.069 1.75636 1.47257 0
M  V30 2401 C 231.069 0.62628 1.48103 0
M  V30 2402 O 232.259 0.894227 1.49497 0
M  V30 2403 C 229.391 1.84553 2.86624 0
M  V30 2404 H 230.584 2.71241 1.27938 0
M  V30 2405 H 228.137 1.42923 0.632662 0
M  V30 2406 H 228.872 0.908882 3.11303 0
M  V30 2407 H 228.657 2.66715 2.87412 0
M  V30 2408 H 230.147 2.04251 3.64241 0
M  V30 2409 N 230.584 -0.659388 1.43143 0
M  V30 2410 C 231.514 -1.78422 1.50625 0
M  V30 2411 C 232.495 -1.66216 0.361443 0
M  V30 2412 O 233.68 -1.85404 0.577834 0
M  V30 2413 C 230.81 -3.16815 1.42287 0
M  V30 2414 C 229.764 -3.43777 2.54954 0
M  V30 2415 C 229.09 -4.81905 2.31671 0
M  V30 2416 C 230.39 -3.39134 3.97222 0
M  V30 2417 H 232.084 -1.72417 2.44771 0
M  V30 2418 H 229.63 -0.828084 1.17808 0
M  V30 2419 H 231.583 -3.95253 1.46127 0
M  V30 2420 H 230.307 -3.23534 0.446435 0
M  V30 2421 H 228.966 -2.67707 2.50457 0
M  V30 2422 H 228.614 -4.85294 1.32284 0
M  V30 2423 H 228.314 -5.00906 3.07192 0
M  V30 2424 H 229.838 -5.62609 2.37284 0
M  V30 2425 H 231.252 -4.07518 4.03239 0
M  V30 2426 H 229.649 -3.69671 4.72719 0
M  V30 2427 H 230.719 -2.37426 4.22797 0
M  V30 2428 N 232.062 -1.29571 -0.897171 0
M  V30 2429 C 233.308 -1.17863 -1.65034 0
M  V30 2430 C 233.641 0.268729 -1.92332 0
M  V30 2431 O 232.916 1.19378 -1.53555 0
M  V30 2432 C 233.199 -1.995 -2.99786 0
M  V30 2433 C 233.052 -3.5239 -2.79538 0
M  V30 2434 C 234.371 -1.82335 -4.00552 0
M  V30 2435 H 231.49 -0.429528 -0.598895 0
M  V30 2436 H 234.132 -1.59072 -1.03905 0
M  V30 2437 H 232.282 -1.64485 -3.51962 0
M  V30 2438 H 233.954 -3.97401 -2.34244 0
M  V30 2439 H 232.197 -3.77187 -2.14273 0
M  V30 2440 H 232.868 -4.04787 -3.75302 0
M  V30 2441 H 235.344 -2.12924 -3.57495 0
M  V30 2442 H 234.22 -2.41801 -4.92771 0
M  V30 2443 H 234.481 -0.779209 -4.35179 0
M  V30 2444 O 233.579 1.03276 -1.24162 0
M  V30 2445 H 234.27 1.64832 -1.01735 0
M  V30 END ATOM
M  V30 BEGIN BOND
M  V30 END BOND
M  V30 END CTAB
M  END
$$$$
