drugbank_target|P10646 Tissue factor pathway inhibitor (DB00036; DB06779; DB14562)
 OpenBabel12092119443D

  0  0  0     0  0            999 V3000
M  V30 BEGIN CTAB
M  V30 COUNTS 4850 4902 0 0 0
M  V30 BEGIN ATOM
M  V30 1 H -0.908 1.98254 -0.117106 0
M  V30 2 N 0 1.576 0 0
M  V30 3 C 0.933 2.03868 1.02534 0
M  V30 4 C 1.911 0.928543 1.3348 0
M  V30 5 O 3.095 1.19667 1.45644 0
M  V30 6 C 0.222 2.43627 2.35294 0
M  V30 7 C -0.732 3.65373 2.2001 0
M  V30 8 S 0.101 5.13292 1.52614 0
M  V30 9 C 1.257 5.56322 2.86805 0
M  V30 10 H 1.49 2.90518 0.631377 0
M  V30 11 H -0.977 1.52953 0.210867 0
M  V30 12 H 0.981 2.67203 3.11629 0
M  V30 13 H -0.358 1.57376 2.7183 0
M  V30 14 H -1.165 3.90944 3.18086 0
M  V30 15 H -1.563 3.418 1.51819 0
M  V30 16 H 0.729 5.58782 3.83104 0
M  V30 17 H 1.672 6.56266 2.65933 0
M  V30 18 H 2.08 4.83886 2.90714 0
M  V30 19 N 1.4781 -0.272755 1.55222 0
M  V30 20 C 2.7271 -1.00211 1.75045 0
M  V30 21 C 3.0401 -1.87441 0.559046 0
M  V30 22 O 4.2461 -2.63856 0.639698 0
M  V30 23 C 2.7021 -1.83165 3.09804 0
M  V30 24 C 2.3101 -1.008 4.36513 0
M  V30 25 C 4.0541 -2.55529 3.38977 0
M  V30 26 C 1.9611 -1.83194 5.62311 0
M  V30 27 H 0.8911 -0.377878 0.652476 0
M  V30 28 H 3.5421 -0.257776 1.8168 0
M  V30 29 H 1.9241 -2.61694 2.97207 0
M  V30 30 H 3.0981 -0.266855 4.60027 0
M  V30 31 H 1.4131 -0.398897 4.14485 0
M  V30 32 H 4.0101 -3.17578 4.30172 0
M  V30 33 H 4.3531 -3.25825 2.59121 0
M  V30 34 H 4.8861 -1.84029 3.52673 0
M  V30 35 H 1.6251 -1.17318 6.44916 0
M  V30 36 H 1.1451 -2.54905 5.4294 0
M  V30 37 H 2.8241 -2.40552 6.00619 0
M  V30 38 N 2.9562 -1.48159 -0.537278 0
M  V30 39 C 4.1862 -1.59223 -1.3165 0
M  V30 40 C 4.5942 -0.248849 -1.87556 0
M  V30 41 O 3.9372 0.770949 -1.6674 0
M  V30 42 C 3.9992 -2.57365 -2.51005 0
M  V30 43 C 3.6632 -4.02603 -2.16239 0
M  V30 44 C 4.6602 -4.90503 -1.72344 0
M  V30 45 C 2.3452 -4.48088 -2.26986 0
M  V30 46 C 4.3392 -6.21913 -1.39651 0
M  V30 47 C 2.0262 -5.7952 -1.93906 0
M  V30 48 C 3.0242 -6.66255 -1.50309 0
M  V30 49 O 2.7122 -7.95243 -1.17659 0
M  V30 50 H 2.4442 -0.539831 -0.406889 0
M  V30 51 H 4.9982 -1.94655 -0.655641 0
M  V30 52 H 3.2282 -2.1704 -3.20048 0
M  V30 53 H 4.9172 -2.58342 -3.13072 0
M  V30 54 H 5.6832 -4.56604 -1.63517 0
M  V30 55 H 1.5622 -3.80769 -2.59877 0
M  V30 56 H 5.1062 -6.89569 -1.0555 0
M  V30 57 H 1.0032 -6.12957 -2.02371 0
M  V30 58 H 1.7712 -8.0793 -1.31119 0
M  V30 59 N 4.4343 0.785586 -1.36625 0
M  V30 60 C 5.6623 1.57448 -1.3423 0
M  V30 61 C 6.0773 1.88649 0.0755653 0
M  V30 62 O 5.4343 1.50414 1.03354 0
M  V30 63 C 5.4853 2.89316 -2.16745 0
M  V30 64 O 5.2063 2.59459 -3.53005 0
M  V30 65 C 6.7073 3.83606 -2.22174 0
M  V30 66 H 3.9273 0.488226 -0.4603 0
M  V30 67 H 6.4713 0.974733 -1.79775 0
M  V30 68 H 4.6263 3.4575 -1.74745 0
M  V30 69 H 5.0403 3.43804 -3.96105 0
M  V30 70 H 6.5143 4.73181 -2.8426 0
M  V30 71 H 6.9913 4.21734 -1.22627 0
M  V30 72 H 7.5973 3.33104 -2.64427 0
M  V30 73 N 5.9124 1.20967 1.01018 0
M  V30 74 C 6.8454 0.907578 2.09376 0
M  V30 75 C 7.8234 -0.142868 1.61971 0
M  V30 76 O 9.0074 -0.0150391 1.88494 0
M  V30 77 C 6.1344 0.361791 3.36762 0
M  V30 78 C 5.1804 1.39423 4.03068 0
M  V30 79 S 6.0134 2.96159 4.4615 0
M  V30 80 C 7.1694 2.43173 5.7673 0
M  V30 81 H 7.4024 1.82519 2.34678 0
M  V30 82 H 4.9354 1.03884 1.14225 0
M  V30 83 H 6.8934 0.0534523 4.10465 0
M  V30 84 H 5.5544 -0.53443 3.0952 0
M  V30 85 H 4.7474 0.961853 4.94737 0
M  V30 86 H 4.3494 1.65038 3.35617 0
M  V30 87 H 6.6414 1.83335 6.52223 0
M  V30 88 H 7.5844 3.33264 6.24773 0
M  V30 89 H 7.9924 1.85069 5.33301 0
M  V30 90 N 7.3905 -1.2043 1.01659 0
M  V30 91 C 8.3375 -2.23215 0.586822 0
M  V30 92 C 9.3075 -1.61382 -0.393085 0
M  V30 93 O 10.4925 -1.88544 -0.292525 0
M  V30 94 C 7.6325 -3.45032 -0.0687464 0
M  V30 95 C 6.7455 -4.21296 0.955724 0
M  V30 96 C 5.8805 -5.30507 0.271208 0
M  V30 97 C 4.9195 -5.98515 1.28244 0
M  V30 98 N 4.0565 -6.99316 0.62459 0
M  V30 99 H 8.8965 -2.59336 1.46796 0
M  V30 100 H 6.4335 -1.27431 0.734836 0
M  V30 101 H 8.3915 -4.1459 -0.465965 0
M  V30 102 H 7.0215 -3.09604 -0.913529 0
M  V30 103 H 6.0735 -3.50803 1.4711 0
M  V30 104 H 7.3855 -4.6803 1.72479 0
M  V30 105 H 6.5395 -6.06428 -0.18151 0
M  V30 106 H 5.2785 -4.8481 -0.530163 0
M  V30 107 H 4.2835 -5.21355 1.74554 0
M  V30 108 H 5.5085 -6.46298 2.08509 0
M  V30 109 H 3.4545 -6.55812 -0.156914 0
M  V30 110 H 3.3715 -7.44178 1.33172 0
M  V30 111 H 4.6395 -7.79255 0.195462 0
M  V30 112 N 8.8686 -0.792821 -1.36206 0
M  V30 113 C 9.8156 -0.191653 -2.30003 0
M  V30 114 C 10.7856 0.666453 -1.52143 0
M  V30 115 O 11.9706 0.61442 -1.80636 0
M  V30 116 C 9.1106 0.664848 -3.38635 0
M  V30 117 C 8.2236 -0.212175 -4.31479 0
M  V30 118 C 7.3586 0.651022 -5.27196 0
M  V30 119 C 6.3976 -0.227247 -6.11678 0
M  V30 120 N 5.5346 0.595127 -6.99573 0
M  V30 121 H 10.3746 -0.996978 -2.80828 0
M  V30 122 H 7.9116 -0.503206 -1.38225 0
M  V30 123 H 9.8696 1.17645 -4.00269 0
M  V30 124 H 8.4996 1.43557 -2.89122 0
M  V30 125 H 7.5516 -0.841777 -3.70969 0
M  V30 126 H 8.8636 -0.888751 -4.90818 0
M  V30 127 H 8.0176 1.2283 -5.94136 0
M  V30 128 H 6.7566 1.36121 -4.68319 0
M  V30 129 H 5.7616 -0.816904 -5.43697 0
M  V30 130 H 6.9866 -0.93509 -6.72631 0
M  V30 131 H 4.9326 1.28955 -6.432 0
M  V30 132 H 4.8496 -0.0236952 -7.55996 0
M  V30 133 H 6.1176 1.15613 -7.70879 0
M  V30 134 N 10.3467 1.47872 -0.545128 0
M  V30 135 C 11.5927 2.02793 -0.0166104 0
M  V30 136 C 11.9257 1.41987 1.32489 0
M  V30 137 O 11.2007 0.571045 1.85928 0
M  V30 138 C 11.4837 3.59989 0.0893294 0
M  V30 139 C 11.3367 4.3125 -1.27841 0
M  V30 140 C 12.6557 4.32606 0.808724 0
M  V30 141 H 9.7747 0.736962 -0.00751035 0
M  V30 142 H 12.4167 1.76433 -0.705085 0
M  V30 143 H 10.5667 3.82579 0.675681 0
M  V30 144 H 12.2387 4.20035 -1.90704 0
M  V30 145 H 10.4817 3.92076 -1.85632 0
M  V30 146 H 11.1527 5.39736 -1.15713 0
M  V30 147 H 13.6287 4.14936 0.310992 0
M  V30 148 H 12.5047 5.42251 0.851782 0
M  V30 149 H 12.7657 4.00963 1.86229 0
M  V30 150 N 11.8248 0.280983 1.55075 0
M  V30 151 C 12.7748 -0.618585 2.19448 0
M  V30 152 C 13.7588 -1.11401 1.16098 0
M  V30 153 O 14.9508 -1.0581 1.41891 0
M  V30 154 C 12.0798 -1.79951 2.92357 0
M  V30 155 C 11.1658 -1.321 4.03002 0
M  V30 156 N 11.5568 -0.559044 5.02701 0
M  V30 157 C 9.8548 -1.60346 4.16179 0
M  V30 158 C 10.5558 -0.306722 5.80891 0
M  V30 159 N 9.5318 -0.880825 5.36416 0
M  V30 160 H 13.3338 -0.0286638 2.93886 0
M  V30 161 H 10.8478 0.0848104 1.62178 0
M  V30 162 H 12.8448 -2.45531 3.36927 0
M  V30 163 H 11.5048 -2.39333 2.19431 0
M  V30 164 H 12.5158 -0.205827 5.17491 0
M  V30 165 H 9.1928 -2.20621 3.54447 0
M  V30 166 H 10.5828 0.30391 6.71212 0
M  V30 167 N 13.3029 -1.57598 0.00835791 0
M  V30 168 C 14.2659 -2.07884 -0.965242 0
M  V30 169 C 15.2659 -0.989825 -1.26725 0
M  V30 170 O 16.4559 -1.25218 -1.21104 0
M  V30 171 C 13.5879 -2.52731 -2.28779 0
M  V30 172 H 14.7809 -2.95178 -0.530112 0
M  V30 173 H 12.3339 -1.54458 -0.239283 0
M  V30 174 H 13.0689 -1.68705 -2.76964 0
M  V30 175 H 12.8539 -3.32272 -2.08177 0
M  V30 176 H 14.3439 -2.91933 -2.98605 0
M  V30 177 N 14.781 0.264519 -1.55364 0
M  V30 178 C 15.711 1.33121 -1.91836 0
M  V30 179 C 16.692 1.51101 -0.781192 0
M  V30 180 O 17.877 1.64003 -1.04003 0
M  V30 181 C 15.007 2.68921 -2.19769 0
M  V30 182 C 13.961 2.65661 -3.35571 0
M  V30 183 C 13.287 4.05093 -3.49004 0
M  V30 184 C 14.587 2.24187 -4.71739 0
M  V30 185 H 16.281 1.02844 -2.81182 0
M  V30 186 H 13.827 0.493286 -1.35287 0
M  V30 187 H 15.78 3.43663 -2.43872 0
M  V30 188 H 14.504 3.00799 -1.27231 0
M  V30 189 H 13.163 1.93377 -3.1145 0
M  V30 190 H 12.811 4.34206 -2.53917 0
M  V30 191 H 12.511 4.03804 -4.26868 0
M  V30 192 H 14.035 4.81561 -3.75408 0
M  V30 193 H 15.449 2.88654 -4.9533 0
M  V30 194 H 13.846 2.34044 -5.52579 0
M  V30 195 H 14.916 1.19327 -4.69988 0
M  V30 196 N 16.2591 1.48442 0.529413 0
M  V30 197 C 17.5051 1.57699 1.28463 0
M  V30 198 C 17.8601 0.247913 1.90796 0
M  V30 199 O 17.1531 -0.749279 1.76342 0
M  V30 200 C 17.3471 2.6523 2.39558 0
M  V30 201 C 17.1761 4.08464 1.88114 0
M  V30 202 C 15.9461 4.75596 1.70693 0
M  V30 203 C 18.1441 4.94613 1.40935 0
M  V30 204 N 16.1261 6.03245 1.13881 0
M  V30 205 C 17.4971 6.12511 0.960734 0
M  V30 206 C 19.5521 4.80833 1.29243 0
M  V30 207 C 18.2551 7.18149 0.406792 0
M  V30 208 C 20.2811 5.86593 0.752487 0
M  V30 209 C 19.6431 7.037 0.313946 0
M  V30 210 H 15.7421 0.631608 0.46108 0
M  V30 211 H 18.3261 1.85325 0.596886 0
M  V30 212 H 16.4971 2.39425 3.05827 0
M  V30 213 H 18.2291 2.64169 3.06589 0
M  V30 214 H 14.9841 4.31938 1.94232 0
M  V30 215 H 15.4081 6.71324 0.874831 0
M  V30 216 H 20.0501 3.90635 1.61754 0
M  V30 217 H 17.7681 8.0807 0.0693671 0
M  V30 218 H 21.3541 5.77985 0.665192 0
M  V30 219 H 20.2341 7.8414 -0.0973632 0
M  V30 220 N 17.7372 -0.778329 1.37039 0
M  V30 221 C 18.7002 -1.87301 1.32102 0
M  V30 222 C 19.7002 -1.59198 0.226405 0
M  V30 223 O 20.8902 -1.67403 0.481861 0
M  V30 224 C 18.0222 -3.24309 1.05055 0
M  V30 225 H 19.2152 -1.93093 2.29467 0
M  V30 226 H 16.7682 -0.977358 1.21973 0
M  V30 227 H 17.5032 -3.24196 0.0819373 0
M  V30 228 H 17.2882 -3.46098 1.84279 0
M  V30 229 H 18.7782 -4.04382 1.04234 0
M  V30 230 N 19.2153 -1.21501 -1.00376 0
M  V30 231 C 20.4403 -1.05977 -1.78279 0
M  V30 232 C 20.8653 0.385994 -1.84097 0
M  V30 233 O 20.2233 1.27849 -1.28547 0
M  V30 234 C 20.2713 -1.66302 -3.19963 0
M  V30 235 O 19.3753 -0.909333 -4.0225 0
M  V30 236 H 18.7163 -0.372906 -0.549397 0
M  V30 237 H 21.2463 -1.6107 -1.26165 0
M  V30 238 H 21.2563 -1.70574 -3.70632 0
M  V30 239 H 19.9313 -2.71515 -3.15043 0
M  V30 240 H 18.5083 -0.941795 -3.60811 0
M  V30 241 N 20.6934 1.19889 -1.02296 0
M  V30 242 C 21.9394 1.89701 -0.717033 0
M  V30 243 C 22.2724 1.7905 0.751989 0
M  V30 244 O 21.5474 1.17891 1.547 0
M  V30 245 C 21.8304 3.40858 -1.16136 0
M  V30 246 C 21.6834 3.60411 -2.69117 0
M  V30 247 C 23.0024 4.33876 -0.737549 0
M  V30 248 H 20.1214 0.688874 -0.261957 0
M  V30 249 H 22.7634 1.41154 -1.27183 0
M  V30 250 H 20.9134 3.82335 -0.689342 0
M  V30 251 H 22.5854 3.28145 -3.2422 0
M  V30 252 H 20.8284 3.03665 -3.0979 0
M  V30 253 H 21.4994 4.66396 -2.95261 0
M  V30 254 H 23.9754 4.00081 -1.14344 0
M  V30 255 H 22.8514 5.38242 -1.0764 0
M  V30 256 H 23.1124 4.40628 0.360436 0
M  V30 257 N 22.1715 0.800033 1.35784 0
M  V30 258 C 23.4115 0.382891 2.00782 0
M  V30 259 C 23.7755 -1.02891 1.62103 0
M  V30 260 O 24.9765 -1.54771 2.19771 0
M  V30 261 C 23.2475 0.553299 3.53091 0
M  V30 262 S 24.8065 0.225608 4.3822 0
M  V30 263 H 21.6245 0.145737 0.695904 0
M  V30 264 H 24.2265 1.04085 1.65489 0
M  V30 265 H 22.9305 1.58091 3.78729 0
M  V30 266 H 22.4615 -0.120214 3.93216 0
M  V30 267 H 24.4765 -0.969074 4.86645 0
M  V30 268 N 23.6496 -1.47581 0.552962 0
M  V30 269 C 24.5796 -2.32762 -0.185451 0
M  V30 270 C 25.5606 -1.43527 -0.912905 0
M  V30 271 O 26.7456 -1.72388 -0.894201 0
M  V30 272 C 23.8756 -3.25219 -1.21859 0
M  V30 273 C 22.8296 -4.23661 -0.607864 0
M  V30 274 C 22.1556 -5.05413 -1.74533 0
M  V30 275 C 23.4556 -5.20481 0.435582 0
M  V30 276 H 25.1496 -2.94749 0.525684 0
M  V30 277 H 22.6956 -1.41738 0.254251 0
M  V30 278 H 24.6486 -3.8365 -1.7433 0
M  V30 279 H 23.3726 -2.61279 -1.95961 0
M  V30 280 H 22.0316 -3.66451 -0.104489 0
M  V30 281 H 21.6796 -4.3788 -2.47529 0
M  V30 282 H 21.3796 -5.72059 -1.34249 0
M  V30 283 H 22.9036 -5.66701 -2.27338 0
M  V30 284 H 24.3176 -5.733 -0.00290157 0
M  V30 285 H 22.7146 -5.95305 0.757067 0
M  V30 286 H 23.7846 -4.66217 1.33303 0
M  V30 287 N 25.1277 -0.289203 -1.54924 0
M  V30 288 C 26.0577 0.58549 -2.2604 0
M  V30 289 C 27.0387 1.14753 -1.25562 0
M  V30 290 O 28.2237 1.17906 -1.54311 0
M  V30 291 C 25.3537 1.76305 -2.99222 0
M  V30 292 C 24.3077 1.33191 -4.06748 0
M  V30 293 C 23.6337 2.5937 -4.6758 0
M  V30 294 C 24.9337 0.471775 -5.20165 0
M  V30 295 H 26.6277 -0.00763532 -2.99399 0
M  V30 296 H 24.1737 -0.00511229 -1.43999 0
M  V30 297 H 26.1267 2.38097 -3.47689 0
M  V30 298 H 24.8507 2.38223 -2.23422 0
M  V30 299 H 23.5097 0.737121 -3.59113 0
M  V30 300 H 23.1577 3.19576 -3.88433 0
M  V30 301 H 22.8577 2.31228 -5.40192 0
M  V30 302 H 24.3817 3.21985 -5.18804 0
M  V30 303 H 25.7957 0.995056 -5.64599 0
M  V30 304 H 24.1927 0.284639 -5.99425 0
M  V30 305 H 25.2627 -0.506041 -4.82252 0
M  V30 306 N 26.6058 1.57591 -0.0167156 0
M  V30 307 C 27.5358 2.12496 0.967858 0
M  V30 308 C 28.5168 1.03807 1.34752 0
M  V30 309 O 29.7018 1.31577 1.42833 0
M  V30 310 C 26.8318 2.64194 2.25431 0
M  V30 311 C 25.7858 3.77559 2.01576 0
M  V30 312 C 25.1118 4.15636 3.36379 0
M  V30 313 C 26.4118 5.04151 1.36489 0
M  V30 314 H 28.1058 2.95013 0.510643 0
M  V30 315 H 25.6518 1.41915 0.244181 0
M  V30 316 H 27.6048 3.01236 2.94678 0
M  V30 317 H 26.3288 1.78821 2.73296 0
M  V30 318 H 24.9878 3.40937 1.34751 0
M  V30 319 H 24.6358 3.27263 3.81979 0
M  V30 320 H 24.3358 4.92022 3.21229 0
M  V30 321 H 25.8598 4.5525 4.06915 0
M  V30 322 H 27.2738 5.38857 1.95718 0
M  V30 323 H 25.6708 5.85453 1.31776 0
M  V30 324 H 26.7408 4.83733 0.336219 0
M  V30 325 N 28.0839 -0.256276 1.55502 0
M  V30 326 C 29.0319 -1.33694 1.90338 0
M  V30 327 C 30.0259 -1.50299 0.781441 0
M  V30 328 O 31.2319 -1.51885 0.965966 0
M  V30 329 H 27.6069 -0.447483 0.60437 0
M  V30 330 H 29.5779 -1.01574 2.8058 0
M  V30 331 C 28.3269 -2.68724 2.20642 0
M  V30 332 H 27.6499 -2.56743 3.06469 0
M  V30 333 H 29.0899 -3.43237 2.48926 0
M  V30 334 C 27.5489 -3.21101 1.01959 0
M  V30 335 O 28.0789 -4.0084 0.262762 0
M  V30 336 N 26.2849 -2.79003 0.812746 0
M  V30 337 H 25.8319 -2.14271 1.42989 0
M  V30 338 H 25.7899 -3.14393 0.0203076 0
M  V30 339 N 29.562 -1.4872 -0.521534 0
M  V30 340 C 30.492 -1.66771 -1.63431 0
M  V30 341 C 31.473 -0.516499 -1.62069 0
M  V30 342 O 32.658 -0.750013 -1.79132 0
M  V30 343 C 29.788 -1.71515 -3.01993 0
M  V30 344 C 28.742 -2.86222 -3.18216 0
M  V30 345 C 28.068 -2.76061 -4.57924 0
M  V30 346 C 29.368 -4.27419 -3.00184 0
M  V30 347 H 31.062 -2.59932 -1.48579 0
M  V30 348 H 28.608 -1.25089 -0.713358 0
M  V30 349 H 30.561 -1.82731 -3.7972 0
M  V30 350 H 29.285 -0.749393 -3.17886 0
M  V30 351 H 27.944 -2.74575 -2.42908 0
M  V30 352 H 27.592 -1.77437 -4.70665 0
M  V30 353 H 27.292 -3.53037 -4.69722 0
M  V30 354 H 28.816 -2.89256 -5.37739 0
M  V30 355 H 30.23 -4.39855 -3.67697 0
M  V30 356 H 28.627 -5.05458 -3.2347 0
M  V30 357 H 29.697 -4.43293 -1.96518 0
M  V30 358 N 31.0401 0.771051 -1.3745 0
M  V30 359 C 32.0031 1.86598 -1.33093 0
M  V30 360 C 33.0031 1.59076 -0.234845 0
M  V30 361 O 34.1931 1.67145 -0.490732 0
M  V30 362 C 31.3251 3.23747 -1.06773 0
M  V30 363 H 32.5181 1.91873 -2.30488 0
M  V30 364 H 30.0711 0.970876 -1.2249 0
M  V30 365 H 30.8061 3.24148 -0.099129 0
M  V30 366 H 30.5911 3.45115 -1.86112 0
M  V30 367 H 32.0811 4.03824 -1.06377 0
M  V30 368 N 32.5182 1.22032 0.997298 0
M  V30 369 C 33.9292 1.0397 1.55071 0
M  V30 370 C 34.2802 -0.398192 1.92117 0
M  V30 371 O 33.4052 -1.28254 1.74298 0
M  V30 372 C 34.0002 1.88109 2.81781 0
M  V30 373 C 32.5592 1.74357 3.33581 0
M  V30 374 C 31.7062 1.84846 2.06706 0
M  V30 375 H 34.6572 1.35941 0.818883 0
M  V30 376 H 34.6782 1.39589 3.53971 0
M  V30 377 H 34.1902 2.92754 2.54787 0
M  V30 378 H 32.2912 0.72427 3.65493 0
M  V30 379 H 32.4042 2.56772 4.04481 0
M  V30 380 H 30.7682 1.28238 2.20062 0
M  V30 381 H 31.5512 2.91014 1.82114 0
M  V30 382 N 33.9963 -1.19345 1.0293 0
M  V30 383 C 34.9593 -2.20793 0.615069 0
M  V30 384 C 35.9593 -1.57553 -0.321533 0
M  V30 385 O 37.1493 -1.73862 -0.108483 0
M  V30 386 C 34.2813 -3.40754 -0.0999222 0
M  V30 387 H 35.4743 -2.58955 1.51269 0
M  V30 388 H 33.0273 -1.3303 0.820534 0
M  V30 389 H 33.7623 -3.0811 -1.01187 0
M  V30 390 H 33.5473 -3.87889 0.57309 0
M  V30 391 H 35.0373 -4.15898 -0.376645 0
M  V30 392 N 35.4744 -0.807222 -1.35358 0
M  V30 393 C 36.8854 -0.44876 -1.81226 0
M  V30 394 C 37.2364 1.02929 -1.67033 0
M  V30 395 O 36.3614 1.79991 -1.20133 0
M  V30 396 C 36.9564 -0.807774 -3.2903 0
M  V30 397 C 35.5154 -0.501901 -3.73039 0
M  V30 398 C 34.6624 -1.03304 -2.57339 0
M  V30 399 H 37.6134 -0.998808 -1.23327 0
M  V30 400 H 37.6344 -0.10554 -3.80354 0
M  V30 401 H 37.1464 -1.88357 -3.39328 0
M  V30 402 H 35.2474 0.565128 -3.68289 0
M  V30 403 H 35.3604 -1.03497 -4.67787 0
M  V30 404 H 33.7244 -0.455339 -2.50597 0
M  V30 405 H 34.5074 -2.11496 -2.70415 0
M  V30 406 N 36.9525 1.47285 -0.560781 0
M  V30 407 C 37.8825 2.32857 0.173105 0
M  V30 408 C 38.8635 1.44009 0.905281 0
M  V30 409 O 40.0485 1.7286 0.885046 0
M  V30 410 C 37.1785 3.25861 1.20133 0
M  V30 411 C 36.1325 4.23978 0.585388 0
M  V30 412 C 35.4585 5.06332 1.7185 0
M  V30 413 C 36.7585 5.20242 -0.463178 0
M  V30 414 H 38.4525 2.94466 -0.541307 0
M  V30 415 H 35.9985 1.41601 -0.261764 0
M  V30 416 H 37.9515 3.84569 1.72293 0
M  V30 417 H 36.6755 2.62315 1.94573 0
M  V30 418 H 35.3345 3.66501 0.085054 0
M  V30 419 H 34.9825 4.39186 2.45203 0
M  V30 420 H 34.6825 5.72762 1.31213 0
M  V30 421 H 36.2065 5.67899 2.24329 0
M  V30 422 H 37.6205 5.73293 -0.027502 0
M  V30 423 H 36.0175 5.94896 -0.788627 0
M  V30 424 H 37.0875 4.65504 -1.35773 0
M  V30 425 N 38.4306 0.297415 1.54768 0
M  V30 426 C 39.3786 -0.596051 2.24833 0
M  V30 427 C 40.3726 -1.13992 1.25308 0
M  V30 428 O 41.5786 -1.09098 1.4317 0
M  V30 429 H 37.9536 -0.210814 0.721846 0
M  V30 430 H 39.9246 0.0174667 2.98395 0
M  V30 431 C 38.6736 -1.75818 2.99972 0
M  V30 432 H 37.9966 -1.3489 3.76357 0
M  V30 433 H 39.4366 -2.35949 3.52284 0
M  V30 434 C 37.8956 -2.66014 2.06732 0
M  V30 435 O 38.4256 -3.67009 1.63302 0
M  V30 436 N 36.6316 -2.33669 1.72763 0
M  V30 437 H 36.1786 -1.51586 2.08277 0
M  V30 438 H 36.1366 -2.94285 1.10652 0
M  V30 439 N 39.9087 -1.5758 0.0250728 0
M  V30 440 C 40.8717 -2.08896 -0.943139 0
M  V30 441 C 41.8717 -1.00321 -1.25668 0
M  V30 442 O 43.0617 -1.26495 -1.19769 0
M  V30 443 C 40.1937 -2.55143 -2.26086 0
M  V30 444 H 41.3867 -2.95723 -0.498775 0
M  V30 445 H 38.9397 -1.54703 -0.222888 0
M  V30 446 H 39.6747 -1.71633 -2.75159 0
M  V30 447 H 39.4597 -3.34461 -2.04641 0
M  V30 448 H 40.9497 -2.95083 -2.95492 0
M  V30 449 N 41.3868 0.248026 -1.55636 0
M  V30 450 C 42.6638 0.998988 -1.68165 0
M  V30 451 C 43.0438 2.03409 -0.564621 0
M  V30 452 O 42.3918 2.24378 0.432076 0
M  V30 453 C 42.6018 1.63334 -3.0842 0
M  V30 454 C 43.9498 2.13562 -3.66983 0
M  V30 455 O 44.9738 1.73277 -3.11213 0
M  V30 456 O 43.8328 2.87526 -4.64749 0
M  V30 457 H 40.9268 0.464933 -0.683935 0
M  V30 458 H 43.4728 0.241902 -1.67967 0
M  V30 459 H 42.2448 0.884583 -3.8117 0
M  V30 460 H 41.8678 2.45666 -3.12624 0
M  V30 461 N 42.8649 1.48995 0.513639 0
M  V30 462 C 44.0899 1.61792 1.29762 0
M  V30 463 C 44.5149 0.284475 1.85936 0
M  V30 464 O 43.8729 -0.746185 1.65232 0
M  V30 465 C 43.9209 2.67993 2.41272 0
M  V30 466 O 43.0249 2.26287 3.44772 0
M  V30 467 H 42.3659 0.541963 0.38363 0
M  V30 468 H 44.8959 1.95097 0.616307 0
M  V30 469 H 44.9059 2.89772 2.87221 0
M  V30 470 H 43.5809 3.64791 1.9975 0
M  V30 471 H 42.1579 2.14788 3.04829 0
M  V30 472 N 44.343 -0.763751 1.37857 0
M  V30 473 C 45.253 -1.90817 1.36478 0
M  V30 474 C 46.269 -1.71997 0.263248 0
M  V30 475 O 47.445 -1.95095 0.499979 0
M  V30 476 C 44.51 -3.2605 1.17864 0
M  V30 477 C 43.571 -3.57467 2.3773 0
M  V30 478 C 42.804 -4.86249 2.19995 0
M  V30 479 O 43.027 -5.57884 1.18836 0
M  V30 480 O 41.961 -5.16911 3.08361 0
M  V30 481 H 45.787 -1.94933 2.32884 0
M  V30 482 H 43.372 -0.907619 1.1867 0
M  V30 483 H 45.254 -4.06924 1.09504 0
M  V30 484 H 43.929 -3.22769 0.245372 0
M  V30 485 H 42.836 -2.76796 2.51664 0
M  V30 486 H 44.169 -3.655 3.29652 0
M  V30 487 N 45.8211 -1.22559 -0.990812 0
M  V30 488 C 46.7311 -1.01394 -2.11557 0
M  V30 489 C 47.7471 0.0383962 -1.73958 0
M  V30 490 O 48.9231 -0.154787 -2.00804 0
M  V30 491 C 45.9881 -0.596569 -3.41529 0
M  V30 492 C 45.0491 -1.72276 -3.93217 0
M  V30 493 C 44.2821 -1.32521 -5.16985 0
M  V30 494 O 44.5051 -0.204909 -5.70032 0
M  V30 495 O 43.4391 -2.14247 -5.62478 0
M  V30 496 H 47.2651 -1.95633 -2.32296 0
M  V30 497 H 44.8501 -1.01172 -1.0993 0
M  V30 498 H 46.7321 -0.374263 -4.19735 0
M  V30 499 H 45.4071 0.316939 -3.22145 0
M  V30 500 H 44.3141 -1.99961 -3.16174 0
M  V30 501 H 45.6471 -2.61421 -4.17037 0
M  V30 502 N 47.2992 1.18797 -1.03562 0
M  V30 503 C 48.5762 1.84469 -0.650434 0
M  V30 504 C 48.9562 1.92319 0.870433 0
M  V30 505 O 48.3042 1.44528 1.76986 0
M  V30 506 C 48.5142 3.2306 -1.32036 0
M  V30 507 C 49.8622 3.9915 -1.44792 0
M  V30 508 O 50.8862 3.32481 -1.27806 0
M  V30 509 O 49.7452 5.18587 -1.72423 0
M  V30 510 H 46.8392 0.795251 -0.226946 0
M  V30 511 H 49.3852 1.26231 -1.13419 0
M  V30 512 H 48.1572 3.1222 -2.3587 0
M  V30 513 H 47.7802 3.88949 -0.8249 0
M  V30 514 N 48.7773 0.814389 1.34928 0
M  V30 515 C 49.6873 0.231978 2.3345 0
M  V30 516 C 50.7033 -0.629139 1.62228 0
M  V30 517 O 51.8793 -0.539052 1.94052 0
M  V30 518 C 48.9443 -0.603482 3.41407 0
M  V30 519 C 48.0053 0.279037 4.28392 0
M  V30 520 C 47.2383 -0.516643 5.31193 0
M  V30 521 O 47.4613 -1.75068 5.4287 0
M  V30 522 O 46.3953 0.0965652 6.01823 0
M  V30 523 H 50.2213 1.04721 2.85074 0
M  V30 524 H 47.8063 0.576343 1.37836 0
M  V30 525 H 49.6883 -1.07908 4.0735 0
M  V30 526 H 48.3633 -1.39618 2.92042 0
M  V30 527 H 47.2703 0.801948 3.65403 0
M  V30 528 H 48.6033 1.03588 4.81176 0
M  V30 529 N 50.2554 -1.46986 0.568584 0
M  V30 530 C 51.1654 -2.33942 -0.17555 0
M  V30 531 C 52.1814 -1.48891 -0.90041 0
M  V30 532 O 53.3574 -1.81794 -0.86676 0
M  V30 533 C 50.4224 -3.25811 -1.18524 0
M  V30 534 C 49.4834 -4.26757 -0.466582 0
M  V30 535 C 48.7164 -5.14236 -1.42817 0
M  V30 536 O 48.9394 -5.04379 -2.66379 0
M  V30 537 O 47.8734 -5.94412 -0.946453 0
M  V30 538 H 51.6994 -2.98896 0.538036 0
M  V30 539 H 49.2844 -1.4573 0.329097 0
M  V30 540 H 51.1664 -3.82527 -1.76779 0
M  V30 541 H 49.8414 -2.63471 -1.88055 0
M  V30 542 H 48.7484 -3.73769 0.157451 0
M  V30 543 H 50.0814 -4.91843 0.187485 0
M  V30 544 N 51.7335 -0.305618 -1.54608 0
M  V30 545 C 52.6835 0.583595 -2.20405 0
M  V30 546 C 53.6675 1.09539 -1.17856 0
M  V30 547 O 54.8595 1.0354 -1.43557 0
M  V30 548 C 51.9885 1.75277 -2.95183 0
M  V30 549 C 51.0745 1.25672 -4.05052 0
M  V30 550 N 51.4655 0.478998 -5.03527 0
M  V30 551 C 49.7635 1.53704 -4.18678 0
M  V30 552 C 50.4645 0.214269 -5.81305 0
M  V30 553 N 49.4405 0.795374 -5.3775 0
M  V30 554 H 53.2425 -0.0180946 -2.93894 0
M  V30 555 H 50.7565 -0.110601 -1.62023 0
M  V30 556 H 52.7535 2.4014 -3.40791 0
M  V30 557 H 51.4135 2.35812 -2.23211 0
M  V30 558 H 52.4245 0.123473 -5.17753 0
M  V30 559 H 49.1015 2.14954 -3.57912 0
M  V30 560 H 50.4915 -0.410656 -6.70644 0
M  V30 561 N 53.2116 1.57565 -0.0334293 0
M  V30 562 C 54.4396 1.9628 0.654347 0
M  V30 563 C 54.8546 0.910138 1.65414 0
M  V30 564 O 54.2116 -0.107595 1.82183 0
M  V30 565 C 54.2626 3.35067 1.35693 0
M  V30 566 O 53.9836 4.36296 0.397191 0
M  V30 567 C 55.4846 3.88439 2.13613 0
M  V30 568 H 52.7046 0.646369 0.180132 0
M  V30 569 H 55.2486 2.04282 -0.0944721 0
M  V30 570 H 53.4036 3.2827 2.05712 0
M  V30 571 H 53.8176 5.1678 0.896597 0
M  V30 572 H 55.2916 4.8788 2.58219 0
M  V30 573 H 55.7686 3.22914 2.97696 0
M  V30 574 H 56.3746 3.98516 1.48543 0
M  V30 575 N 54.6897 -0.239769 1.55765 0
M  V30 576 C 55.9387 -0.964754 1.77131 0
M  V30 577 C 56.2517 -1.86213 0.59868 0
M  V30 578 O 57.4577 -2.6244 0.695522 0
M  V30 579 C 55.9137 -1.76552 3.1362 0
M  V30 580 C 55.5217 -0.915185 4.38553 0
M  V30 581 C 57.2657 -2.48281 3.44321 0
M  V30 582 C 55.1727 -1.71225 5.66071 0
M  V30 583 H 54.1027 -0.363953 0.660344 0
M  V30 584 H 56.7537 -0.219181 1.82186 0
M  V30 585 H 55.1357 -2.55331 3.02691 0
M  V30 586 H 56.3097 -0.169217 4.60489 0
M  V30 587 H 54.6247 -0.310889 4.15238 0
M  V30 588 H 57.2217 -3.08382 4.36812 0
M  V30 589 H 57.5647 -3.20256 2.65973 0
M  V30 590 H 58.0977 -1.76507 3.56497 0
M  V30 591 H 54.8367 -1.03612 6.4726 0
M  V30 592 H 54.3567 -2.43331 5.48224 0
M  V30 593 H 56.0357 -2.27758 6.05587 0
M  V30 594 N 56.1678 -1.49265 -0.50573 0
M  V30 595 C 57.4168 -1.57761 -1.25675 0
M  V30 596 C 57.7298 -0.267371 -1.93764 0
M  V30 597 O 58.9358 -0.230827 -2.70517 0
M  V30 598 C 57.3918 -2.78332 -2.28165 0
M  V30 599 C 56.9998 -4.16096 -1.66037 0
M  V30 600 C 58.7438 -2.96155 -3.04125 0
M  V30 601 C 56.6508 -5.27895 -2.6661 0
M  V30 602 H 55.5808 -0.587391 -0.472745 0
M  V30 603 H 58.2318 -1.75644 -0.53118 0
M  V30 604 H 56.6138 -2.53934 -3.03865 0
M  V30 605 H 57.7878 -4.50612 -0.963622 0
M  V30 606 H 56.1028 -4.03591 -1.02484 0
M  V30 607 H 58.6998 -3.76849 -3.79327 0
M  V30 608 H 59.0428 -2.06534 -3.61455 0
M  V30 609 H 59.5758 -3.2057 -2.35541 0
M  V30 610 H 56.3148 -6.1956 -2.14068 0
M  V30 611 H 55.8348 -4.97839 -3.34539 0
M  V30 612 H 57.5138 -5.57031 -3.29129 0
M  V30 613 N 57.6459 0.756429 -1.3826 0
M  V30 614 C 58.8739 1.54565 -1.3754 0
M  V30 615 C 59.2889 1.88767 0.0355331 0
M  V30 616 O 58.6459 1.52572 1.0014 0
M  V30 617 C 58.6969 2.84654 -2.22833 0
M  V30 618 O 58.4179 2.51912 -3.5843 0
M  V30 619 C 59.9189 3.78807 -2.30261 0
M  V30 620 H 57.1389 0.478353 -0.470553 0
M  V30 621 H 59.6829 0.936381 -1.81803 0
M  V30 622 H 57.8379 3.41965 -1.8204 0
M  V30 623 H 58.2519 3.35325 -4.03308 0
M  V30 624 H 59.7259 4.67045 -2.94233 0
M  V30 625 H 60.2029 4.19038 -1.31545 0
M  V30 626 H 60.8089 3.2742 -2.71433 0
M  V30 627 N 59.124 1.23083 0.984299 0
M  V30 628 C 60.401 0.9689 1.69917 0
M  V30 629 C 60.781 -0.513604 2.04757 0
M  V30 630 O 60.129 -1.48383 1.73767 0
M  V30 631 C 60.339 1.87518 2.94343 0
M  V30 632 C 61.687 2.13636 3.6694 0
M  V30 633 O 62.711 1.85036 3.04368 0
M  V30 634 O 61.57 2.62119 4.79537 0
M  V30 635 H 58.664 0.365095 0.742048 0
M  V30 636 H 61.21 1.34107 1.03987 0
M  V30 637 H 59.982 2.87756 2.65164 0
M  V30 638 H 59.605 1.50514 3.6801 0
M  V30 639 N 60.6021 -1.18246 1.0419 0
M  V30 640 C 61.8301 -1.92195 0.766072 0
M  V30 641 C 62.2451 -1.76247 -0.676933 0
M  V30 642 O 61.6021 -1.09293 -1.46155 0
M  V30 643 C 61.6531 -3.43568 1.12442 0
M  V30 644 O 61.3741 -3.59015 2.51078 0
M  V30 645 C 62.8751 -4.34613 0.873275 0
M  V30 646 H 60.0951 -0.610114 0.279288 0
M  V30 647 H 62.6391 -1.50007 1.38989 0
M  V30 648 H 60.7941 -3.8354 0.545542 0
M  V30 649 H 61.2081 -4.5273 2.64831 0
M  V30 650 H 62.6821 -5.39374 1.17385 0
M  V30 651 H 63.1591 -4.38781 -0.191909 0
M  V30 652 H 63.7651 -4.00341 1.43551 0
M  V30 653 N 62.0802 -0.821533 -1.34494 0
M  V30 654 C 62.9902 -0.244355 -2.33324 0
M  V30 655 C 64.0062 0.620527 -1.62559 0
M  V30 656 O 65.1822 0.528754 -1.94335 0
M  V30 657 C 62.2472 0.585368 -3.41723 0
M  V30 658 C 61.3082 -0.301752 -4.28238 0
M  V30 659 C 60.5412 0.488466 -5.3146 0
M  V30 660 O 60.7642 1.72186 -5.4379 0
M  V30 661 O 59.6982 -0.12848 -6.01763 0
M  V30 662 H 63.5242 -1.06231 -2.84515 0
M  V30 663 H 61.1092 -0.583645 -1.37528 0
M  V30 664 H 62.9912 1.05747 -4.07916 0
M  V30 665 H 61.6662 1.38068 -2.92778 0
M  V30 666 H 60.5732 -0.821315 -3.64973 0
M  V30 667 H 61.9062 -1.06138 -4.8062 0
M  V30 668 N 63.5583 1.46682 -0.576371 0
M  V30 669 C 64.4883 2.33028 0.148397 0
M  V30 670 C 65.4693 1.44961 0.889956 0
M  V30 671 O 66.6543 1.73789 0.866662 0
M  V30 672 C 63.7843 3.27117 1.1667 0
M  V30 673 C 62.7383 4.24575 0.540386 0
M  V30 674 C 62.0643 5.08126 1.6647 0
M  V30 675 C 63.3643 5.19722 -0.518331 0
M  V30 676 H 65.0583 2.93875 -0.572509 0
M  V30 677 H 62.6043 1.41315 -0.276768 0
M  V30 678 H 64.5573 3.86374 1.68204 0
M  V30 679 H 63.2813 2.64364 1.9178 0
M  V30 680 H 61.9403 3.66571 0.0461769 0
M  V30 681 H 61.5883 4.41762 2.40531 0
M  V30 682 H 61.2883 5.74122 1.25131 0
M  V30 683 H 62.8123 5.70246 2.18293 0
M  V30 684 H 64.2263 5.73232 -0.0883058 0
M  V30 685 H 62.6233 5.94026 -0.851679 0
M  V30 686 H 63.6933 4.64037 -1.40703 0
M  V30 687 N 65.0364 0.313813 1.54444 0
M  V30 688 C 66.4474 -0.176243 1.85866 0
M  V30 689 C 66.7984 -1.52405 1.23561 0
M  V30 690 O 65.9234 -2.09605 0.538016 0
M  V30 691 C 66.5184 -0.32657 3.37222 0
M  V30 692 C 65.0774 -0.760846 3.6863 0
M  V30 693 C 64.2244 0.123247 2.77026 0
M  V30 694 H 67.1754 0.534418 1.49431 0
M  V30 695 H 67.1964 -1.15908 3.62416 0
M  V30 696 H 66.7084 0.654531 3.82541 0
M  V30 697 H 64.8094 -1.75204 3.28838 0
M  V30 698 H 64.9224 -0.571353 4.75681 0
M  V30 699 H 63.2864 -0.399597 2.51546 0
M  V30 700 H 64.0694 1.10094 3.25168 0
M  V30 701 N 66.5145 -1.57545 0.0417849 0
M  V30 702 C 67.9255 -1.80011 -0.495259 0
M  V30 703 C 68.2765 -0.953199 -1.71489 0
M  V30 704 O 67.4015 -0.167138 -2.15754 0
M  V30 705 C 67.9965 -3.26482 -0.905265 0
M  V30 706 C 66.5555 -3.499 -1.38734 0
M  V30 707 C 65.7025 -2.74979 -0.358056 0
M  V30 708 H 68.6535 -1.56425 0.267736 0
M  V30 709 H 68.6745 -3.36887 -1.76882 0
M  V30 710 H 68.1865 -3.88096 -0.017401 0
M  V30 711 H 66.2875 -2.93553 -2.29471 0
M  V30 712 H 66.4005 -4.58615 -1.38598 0
M  V30 713 H 64.7645 -2.40834 -0.828912 0
M  V30 714 H 65.5475 -3.39315 0.521561 0
M  V30 715 N 67.9926 0.231505 -1.5589 0
M  V30 716 C 68.9226 1.29022 -1.94617 0
M  V30 717 C 69.9036 1.4941 -0.813067 0
M  V30 718 O 71.0886 1.6176 -1.07459 0
M  V30 719 C 68.2186 2.64199 -2.25424 0
M  V30 720 C 67.1726 2.58484 -3.41131 0
M  V30 721 C 66.4986 3.97599 -3.57518 0
M  V30 722 C 67.7986 2.1413 -4.76388 0
M  V30 723 H 69.4926 0.968563 -2.83301 0
M  V30 724 H 67.0386 0.464479 -1.36303 0
M  V30 725 H 68.9916 3.38413 -2.51107 0
M  V30 726 H 67.7156 2.98032 -1.33583 0
M  V30 727 H 66.3746 1.86727 -3.15481 0
M  V30 728 H 66.0226 4.28723 -2.6307 0
M  V30 729 H 65.7226 3.94659 -4.35337 0
M  V30 730 H 67.2466 4.7349 -3.85538 0
M  V30 731 H 68.6606 2.78083 -5.01341 0
M  V30 732 H 67.0576 2.2227 -5.57419 0
M  V30 733 H 68.1276 1.09331 -4.72414 0
M  V30 734 N 69.4707 1.49531 0.497807 0
M  V30 735 C 70.4177 1.66436 1.59899 0
M  V30 736 C 71.3877 0.505793 1.58212 0
M  V30 737 O 72.5727 0.733202 1.7615 0
M  V30 738 C 69.7127 1.7399 2.98029 0
M  V30 739 C 68.8257 3.01172 3.09708 0
M  V30 740 C 67.9607 2.99686 4.38591 0
M  V30 741 C 66.9997 4.21434 4.43914 0
M  V30 742 N 66.1367 4.1784 5.64229 0
M  V30 743 H 70.9767 2.60459 1.44793 0
M  V30 744 H 68.5137 1.29137 0.704423 0
M  V30 745 H 70.4717 1.76352 3.78095 0
M  V30 746 H 69.1017 0.834301 3.11832 0
M  V30 747 H 68.1537 3.08408 2.22685 0
M  V30 748 H 69.4657 3.91165 3.09502 0
M  V30 749 H 68.6197 3.00628 5.2698 0
M  V30 750 H 67.3587 2.07477 4.41367 0
M  V30 751 H 66.3637 4.20733 3.53926 0
M  V30 752 H 67.5887 5.14839 4.42851 0
M  V30 753 H 65.5347 3.28469 5.67841 0
M  V30 754 H 65.4517 5.01571 5.65652 0
M  V30 755 H 66.7197 4.22889 6.54817 0
M  V30 756 N 70.9488 -0.749086 1.3866 0
M  V30 757 C 71.8788 -1.8764 1.38973 0
M  V30 758 C 72.8598 -1.68178 0.255004 0
M  V30 759 O 74.0448 -1.88704 0.458754 0
M  V30 760 C 71.1748 -3.25222 1.21851 0
M  V30 761 C 70.1288 -3.59295 2.32575 0
M  V30 762 C 69.4548 -4.95663 2.00555 0
M  V30 763 C 70.7548 -3.63709 3.7485 0
M  V30 764 H 72.4488 -1.87635 2.3331 0
M  V30 765 H 69.9948 -0.901329 1.12303 0
M  V30 766 H 71.9478 -4.03746 1.20695 0
M  V30 767 H 70.6718 -3.25719 0.239775 0
M  V30 768 H 69.3308 -2.83093 2.32925 0
M  V30 769 H 68.9788 -4.92724 1.01154 0
M  V30 770 H 68.6788 -5.19429 2.74714 0
M  V30 771 H 70.2028 -5.7656 2.01024 0
M  V30 772 H 71.6168 -4.32338 3.76506 0
M  V30 773 H 70.0138 -3.98986 4.48252 0
M  V30 774 H 71.0838 -2.63834 4.06841 0
M  V30 775 N 72.4269 -1.23603 -0.977757 0
M  V30 776 C 73.3599 -0.962772 -2.06896 0
M  V30 777 C 74.3379 0.0998743 -1.62293 0
M  V30 778 O 75.5219 -0.0349421 -1.88468 0
M  V30 779 C 72.6489 -0.45095 -3.35685 0
M  V30 780 C 71.6949 -1.50061 -3.99229 0
M  V30 781 S 72.5279 -3.07884 -4.38142 0
M  V30 782 C 73.6839 -2.58378 -5.7008 0
M  V30 783 H 73.9169 -1.88677 -2.29757 0
M  V30 784 H 71.4499 -1.06876 -1.11431 0
M  V30 785 H 73.4079 -0.162261 -4.10179 0
M  V30 786 H 72.0689 0.452179 -3.10828 0
M  V30 787 H 71.2619 -1.09269 -4.92013 0
M  V30 788 H 70.8639 -1.73878 -3.31123 0
M  V30 789 H 73.1559 -2.00563 -6.47133 0
M  V30 790 H 74.0989 -3.49711 -6.15717 0
M  V30 791 H 74.5069 -1.99143 -5.28207 0
M  V30 792 N 73.905 1.17692 -1.04816 0
M  V30 793 C 74.855 2.1952 -0.616042 0
M  V30 794 C 75.839 1.57147 0.345485 0
M  V30 795 O 77.031 1.76245 0.163325 0
M  V30 796 C 74.16 3.43298 0.0116917 0
M  V30 797 C 73.246 4.12777 -0.973435 0
M  V30 798 N 73.637 4.5814 -2.14339 0
M  V30 799 C 71.935 4.38747 -0.80108 0
M  V30 800 C 72.636 5.11713 -2.7663 0
M  V30 801 N 71.612 5.03686 -2.04453 0
M  V30 802 H 75.414 2.52293 -1.5075 0
M  V30 803 H 72.928 1.3398 -0.917776 0
M  V30 804 H 74.925 4.15519 0.339006 0
M  V30 805 H 73.585 3.12018 0.898593 0
M  V30 806 H 74.596 4.52349 -2.52191 0
M  V30 807 H 71.273 4.17485 0.0350934 0
M  V30 808 H 72.663 5.56962 -3.75823 0
M  V30 809 N 75.3831 0.828654 1.34056 0
M  V30 810 C 76.6081 0.431637 2.02859 0
M  V30 811 C 77.0331 -0.956339 1.61975 0
M  V30 812 O 76.3911 -1.62338 0.807228 0
M  V30 813 C 76.4391 0.548323 3.56407 0
M  V30 814 O 75.5431 -0.429556 4.10157 0
M  V30 815 H 74.8841 0.176886 0.640006 0
M  V30 816 H 77.4141 1.12066 1.71179 0
M  V30 817 H 77.4241 0.426196 4.05768 0
M  V30 818 H 76.0991 1.5606 3.8551 0
M  V30 819 H 74.6761 -0.265836 3.71951 0
M  V30 820 N 76.8612 -1.46375 0.584142 0
M  V30 821 C 78.1082 -2.02378 0.0702675 0
M  V30 822 C 78.4362 -1.45545 -1.29023 0
M  V30 823 O 77.6912 -0.610967 -1.85918 0
M  V30 824 C 77.9902 -3.57373 -0.0439342 0
M  V30 825 C 77.6562 -4.33252 1.24915 0
M  V30 826 C 76.3182 -4.53701 1.60341 0
M  V30 827 C 78.6702 -4.7681 2.1048 0
M  V30 828 C 75.9982 -5.1496 2.81128 0
M  V30 829 C 78.3502 -5.39404 3.30494 0
M  V30 830 C 77.0142 -5.5808 3.66201 0
M  V30 831 H 76.2842 -0.740554 0.0257127 0
M  V30 832 H 78.9312 -1.75727 0.761065 0
M  V30 833 H 77.2362 -3.83169 -0.817869 0
M  V30 834 H 78.9332 -3.98384 -0.457318 0
M  V30 835 H 75.5232 -4.17633 0.963364 0
M  V30 836 H 79.7072 -4.60766 1.84414 0
M  V30 837 H 74.9632 -5.27611 3.08928 0
M  V30 838 H 79.1372 -5.72114 3.97063 0
M  V30 839 H 76.7642 -6.05318 4.59885 0
M  V30 840 N 78.3393 -0.321999 -1.54275 0
M  V30 841 C 79.5793 0.281657 -2.0245 0
M  V30 842 C 79.9433 1.49468 -1.20513 0
M  V30 843 O 81.1443 2.17109 -1.58484 0
M  V30 844 C 79.4153 0.609014 -3.52173 0
M  V30 845 S 80.9743 1.19255 -4.22284 0
M  V30 846 H 77.7923 0.0852825 -0.705867 0
M  V30 847 H 80.3943 -0.454758 -1.90137 0
M  V30 848 H 79.0983 -0.281982 -4.0943 0
M  V30 849 H 78.6293 1.37567 -3.68563 0
M  V30 850 H 80.6443 2.47944 -4.29812 0
M  V30 851 N 79.8174 1.5752 -0.0501392 0
M  V30 852 C 80.7804 2.1037 0.909786 0
M  V30 853 C 81.7804 1.02308 1.24056 0
M  V30 854 O 82.9704 1.28385 1.17741 0
M  V30 855 C 80.1024 2.58708 2.21998 0
M  V30 856 H 81.2954 2.96479 0.451665 0
M  V30 857 H 78.8484 1.55038 0.198248 0
M  V30 858 H 79.5834 1.75989 2.72394 0
M  V30 859 H 79.3684 3.37675 1.99295 0
M  V30 860 H 80.8584 2.99747 2.9076 0
M  V30 861 N 81.2955 -0.223234 1.56011 0
M  V30 862 C 82.5425 -0.947875 1.78946 0
M  V30 863 C 82.8705 -1.844 0.618608 0
M  V30 864 O 82.1255 -1.91629 -0.397093 0
M  V30 865 C 82.4245 -1.81948 3.0762 0
M  V30 866 C 82.0905 -1.07672 4.37856 0
M  V30 867 C 80.7525 -0.871544 4.73242 0
M  V30 868 C 83.1045 -0.552081 5.18268 0
M  V30 869 C 80.4325 -0.129791 5.86556 0
M  V30 870 C 82.7845 0.17632 6.32354 0
M  V30 871 C 81.4485 0.39277 6.66343 0
M  V30 872 H 80.7185 -0.346852 0.654809 0
M  V30 873 H 83.3655 -0.216171 1.90276 0
M  V30 874 H 81.6705 -2.61899 2.91404 0
M  V30 875 H 83.3675 -2.38227 3.22566 0
M  V30 876 H 79.9575 -1.24662 4.1007 0
M  V30 877 H 84.1415 -0.698076 4.91366 0
M  V30 878 H 79.3975 0.048153 6.11381 0
M  V30 879 H 83.5715 0.590367 6.93893 0
M  V30 880 H 81.1985 0.969466 7.53993 0
M  V30 881 N 82.7736 -1.49793 -0.48987 0
M  V30 882 C 83.7206 -1.67281 -1.59014 0
M  V30 883 C 84.6906 -0.514177 -1.57941 0
M  V30 884 O 85.8756 -0.742533 -1.75759 0
M  V30 885 C 83.0156 -1.75569 -2.97102 0
M  V30 886 C 82.1286 -3.0281 -3.08107 0
M  V30 887 C 81.2636 -3.02008 -4.36995 0
M  V30 888 C 80.3026 -4.23782 -4.41673 0
M  V30 889 N 79.4396 -4.20826 -5.62005 0
M  V30 890 H 84.2796 -2.61224 -1.43409 0
M  V30 891 H 81.8166 -1.29508 -0.697565 0
M  V30 892 H 83.7746 -1.78354 -3.77155 0
M  V30 893 H 82.4046 -0.850827 -3.11385 0
M  V30 894 H 81.4566 -3.09584 -2.21047 0
M  V30 895 H 82.7686 -3.92801 -3.07423 0
M  V30 896 H 81.9226 -3.03418 -5.25378 0
M  V30 897 H 80.6616 -2.09815 -4.4026 0
M  V30 898 H 79.6666 -4.22604 -3.5169 0
M  V30 899 H 80.8916 -5.17181 -4.40115 0
M  V30 900 H 78.8376 -3.31476 -5.66091 0
M  V30 901 H 78.7546 -5.04564 -5.62984 0
M  V30 902 H 80.0226 -4.26355 -6.52565 0
M  V30 903 N 84.2517 0.741722 -1.39055 0
M  V30 904 C 85.2147 1.83733 -1.37021 0
M  V30 905 C 86.2147 1.58542 -0.268534 0
M  V30 906 O 87.4047 1.66067 -0.526076 0
M  V30 907 C 84.5367 3.2141 -1.13617 0
M  V30 908 H 85.7297 1.86941 -2.34506 0
M  V30 909 H 83.2827 0.944676 -1.24521 0
M  V30 910 H 84.0177 3.23865 -0.167863 0
M  V30 911 H 83.8027 3.4109 -1.93391 0
M  V30 912 H 85.2927 4.01477 -1.14918 0
M  V30 913 N 85.7298 1.2412 0.971189 0
M  V30 914 C 87.0068 0.986867 1.6888 0
M  V30 915 C 87.3868 -0.491857 2.0529 0
M  V30 916 O 86.7348 -1.46531 1.75331 0
M  V30 917 C 86.9448 1.9063 2.92338 0
M  V30 918 C 88.2928 2.17515 3.64654 0
M  V30 919 O 89.3168 1.88254 3.02388 0
M  V30 920 O 88.1758 2.6719 4.7673 0
M  V30 921 H 85.2698 0.372944 0.738134 0
M  V30 922 H 87.8158 1.35203 1.02559 0
M  V30 923 H 86.5878 2.90552 2.62097 0
M  V30 924 H 86.2108 1.54408 3.66393 0
M  V30 925 N 87.2079 -1.17134 1.05439 0
M  V30 926 C 88.4849 -1.83411 0.679699 0
M  V30 927 C 88.8649 -1.9368 -0.839726 0
M  V30 928 O 88.2129 -1.47325 -1.74664 0
M  V30 929 C 88.4229 -3.20918 1.37159 0
M  V30 930 C 89.7709 -3.96796 1.51123 0
M  V30 931 O 90.7949 -3.30406 1.3308 0
M  V30 932 O 89.6539 -5.15778 1.80651 0
M  V30 933 H 86.7479 -0.79154 0.239569 0
M  V30 934 H 89.2939 -1.24411 1.15413 0
M  V30 935 H 88.0659 -3.08428 2.40807 0
M  V30 936 H 87.6889 -3.87587 0.886674 0
M  V30 937 N 88.686 -0.835752 -1.33615 0
M  V30 938 C 89.934 -0.429109 -1.97492 0
M  V30 939 C 90.255 1.01433 -1.66543 0
M  V30 940 O 89.525 1.70611 -0.962744 0
M  V30 941 H 88.105 -0.155686 -0.730596 0
M  V30 942 H 90.767 -1.06802 -1.63031 0
M  V30 943 H 89.863 -0.55861 -3.0706 0
M  V30 944 N 90.1641 1.46063 -0.591896 0
M  V30 945 C 91.5751 1.85944 -0.167822 0
M  V30 946 C 91.9261 1.49429 1.27143 0
M  V30 947 O 91.0511 0.913515 1.96173 0
M  V30 948 C 91.6461 3.37489 -0.297794 0
M  V30 949 C 90.2051 3.76332 0.0714732 0
M  V30 950 C 89.3521 2.7006 -0.629509 0
M  V30 951 H 92.3031 1.37087 -0.799555 0
M  V30 952 H 92.3241 3.77532 0.474349 0
M  V30 953 H 91.8361 3.64034 -1.3454 0
M  V30 954 H 89.9371 3.55405 1.11886 0
M  V30 955 H 90.0501 4.78088 -0.311245 0
M  V30 956 H 88.4141 2.54607 -0.0687867 0
M  V30 957 H 89.1971 2.99444 -1.67894 0
M  V30 958 N 91.6422 0.330177 1.54103 0
M  V30 959 C 92.8822 -0.270916 2.02597 0
M  V30 960 C 93.2462 -1.48826 1.21304 0
M  V30 961 O 94.4472 -2.16266 1.59633 0
M  V30 962 C 92.7182 -0.590328 3.52491 0
M  V30 963 S 94.2772 -1.17014 4.2291 0
M  V30 964 H 91.0952 -0.0815379 0.706309 0
M  V30 965 H 93.6972 0.464835 1.89893 0
M  V30 966 H 92.4012 0.303691 4.09275 0
M  V30 967 H 91.9322 -1.3561 3.69288 0
M  V30 968 H 93.9472 -2.45662 4.3112 0
M  V30 969 N 93.1203 -1.57491 0.0584922 0
M  V30 970 C 94.0673 -2.11958 -0.913376 0
M  V30 971 C 95.0373 -1.02875 -1.30407 0
M  V30 972 O 96.2223 -1.30464 -1.39226 0
M  V30 973 C 93.3623 -2.67497 -2.18035 0
M  V30 974 C 92.4753 -3.90691 -1.84349 0
M  V30 975 C 91.6103 -4.3452 -3.05559 0
M  V30 976 C 90.6493 -5.50395 -2.67827 0
M  V30 977 N 89.7863 -5.89244 -3.81754 0
M  V30 978 H 94.6263 -2.94704 -0.442017 0
M  V30 979 H 92.1633 -1.45643 -0.206545 0
M  V30 980 H 94.1213 -2.978 -2.92183 0
M  V30 981 H 92.7513 -1.87537 -2.62735 0
M  V30 982 H 91.8033 -3.66934 -1.00319 0
M  V30 983 H 93.1153 -4.7489 -1.5258 0
M  V30 984 H 92.2693 -4.66414 -3.87998 0
M  V30 985 H 91.0083 -3.49147 -3.40511 0
M  V30 986 H 90.0133 -5.18165 -1.83806 0
M  V30 987 H 91.2383 -6.3749 -2.34059 0
M  V30 988 H 89.1843 -5.06823 -4.16493 0
M  V30 989 H 89.1013 -6.68151 -3.53708 0
M  V30 990 H 90.3693 -6.25756 -4.64811 0
M  V30 991 N 94.5984 0.214957 -1.56127 0
M  V30 992 C 95.5614 1.24997 -1.92116 0
M  V30 993 C 96.5614 1.39467 -0.800344 0
M  V30 994 O 97.7514 1.37619 -1.06802 0
M  V30 995 C 94.8834 2.62271 -2.17777 0
M  V30 996 H 96.0764 0.942875 -2.84693 0
M  V30 997 H 93.6294 0.455654 -1.49511 0
M  V30 998 H 94.3644 2.98068 -1.27773 0
M  V30 999 H 94.1494 2.53143 -2.99434 0
M  V30 1000 H 95.6394 3.36946 -2.46693 0
M  V30 1001 N 96.0765 1.50051 0.48192 0
M  V30 1002 C 97.3255 1.59741 1.23149 0
M  V30 1003 C 97.6385 0.298163 1.93314 0
M  V30 1004 O 98.8445 0.273835 2.70116 0
M  V30 1005 C 97.3005 2.81926 2.23708 0
M  V30 1006 C 96.9085 4.18685 1.59396 0
M  V30 1007 C 98.6525 3.00956 2.99375 0
M  V30 1008 C 96.5595 5.3207 2.58178 0
M  V30 1009 H 95.4895 0.594838 0.46334 0
M  V30 1010 H 98.1405 1.76467 0.503169 0
M  V30 1011 H 96.5225 2.58736 2.99786 0
M  V30 1012 H 97.6965 4.52088 0.891811 0
M  V30 1013 H 96.0115 4.05171 0.960503 0
M  V30 1014 H 98.6085 3.82836 3.73283 0
M  V30 1015 H 98.9515 2.12258 3.58123 0
M  V30 1016 H 99.4845 3.24277 2.30411 0
M  V30 1017 H 96.2235 6.22888 2.04184 0
M  V30 1018 H 95.7435 5.03098 3.26577 0
M  V30 1019 H 97.4225 5.62196 3.20225 0
M  V30 1020 N 97.5546 -0.734337 1.39446 0
M  V30 1021 C 98.4876 -1.85715 1.32609 0
M  V30 1022 C 99.4656 -1.6137 0.199636 0
M  V30 1023 O 100.65 -1.84626 0.380195 0
M  V30 1024 C 97.7766 -3.21709 1.05929 0
M  V30 1025 C 96.8226 -3.64913 2.20773 0
M  V30 1026 S 97.6556 -3.74203 3.83056 0
M  V30 1027 C 98.8116 -5.12986 3.58603 0
M  V30 1028 H 99.0446 -1.91232 2.27635 0
M  V30 1029 H 96.5776 -0.899263 1.25509 0
M  V30 1030 H 98.5356 -4.00236 0.912203 0
M  V30 1031 H 97.1966 -3.13848 0.125883 0
M  V30 1032 H 96.3896 -4.63606 1.97699 0
M  V30 1033 H 95.9916 -2.93593 2.31688 0
M  V30 1034 H 98.2836 -5.99339 3.15909 0
M  V30 1035 H 99.2266 -5.41088 4.5676 0
M  V30 1036 H 99.6346 -4.82694 2.9269 0
M  V30 1037 N 99.0327 -1.24633 -0.964593 0
M  V30 1038 C 99.9797 -1.04144 -2.05968 0
M  V30 1039 C 100.95 0.046262 -1.66036 0
M  V30 1040 O 102.135 -0.108972 -1.90489 0
M  V30 1041 C 99.2747 -0.65563 -3.38815 0
M  V30 1042 C 98.3877 -1.81714 -3.91923 0
M  V30 1043 C 97.5227 -1.37662 -5.13052 0
M  V30 1044 C 96.5617 -2.50788 -5.58365 0
M  V30 1045 N 95.6987 -2.07582 -6.70712 0
M  V30 1046 H 100.539 -1.9787 -2.22827 0
M  V30 1047 H 98.0757 -0.9855 -1.09208 0
M  V30 1048 H 100.034 -0.412954 -4.15151 0
M  V30 1049 H 98.6637 0.244627 -3.21872 0
M  V30 1050 H 97.7157 -2.1734 -3.12198 0
M  V30 1051 H 99.0277 -2.66705 -4.21509 0
M  V30 1052 H 98.1817 -1.093 -5.96773 0
M  V30 1053 H 96.9207 -0.497293 -4.85158 0
M  V30 1054 H 95.9257 -2.79906 -4.73215 0
M  V30 1055 H 97.1507 -3.39283 -5.88272 0
M  V30 1056 H 95.0967 -1.22051 -6.44546 0
M  V30 1057 H 95.0137 -2.86125 -6.99763 0
M  V30 1058 H 96.2817 -1.82369 -7.57867 0
M  V30 1059 N 100.511 1.16574 -1.06058 0
M  V30 1060 C 101.927 1.3904 -0.783585 0
M  V30 1061 C 102.127 1.91784 0.618145 0
M  V30 1062 O 101.183 2.11511 1.37911 0
M  V30 1063 C 102.496 2.37329 -1.84649 0
M  V30 1064 C 104.044 2.51018 -1.86973 0
M  V30 1065 C 104.519 3.52588 -2.92311 0
M  V30 1066 N 106.01 3.60113 -2.91329 0
M  V30 1067 C 106.745 4.38486 -3.69482 0
M  V30 1068 N 106.241 5.20302 -4.57447 0
M  V30 1069 N 108.034 4.33446 -3.57885 0
M  V30 1070 H 100.185 0.806725 -1.96483 0
M  V30 1071 H 102.448 0.417117 -0.851303 0
M  V30 1072 H 102.154 2.05663 -2.85299 0
M  V30 1073 H 102.028 3.36946 -1.6955 0
M  V30 1074 H 104.415 2.81989 -0.869827 0
M  V30 1075 H 104.496 1.51445 -2.0615 0
M  V30 1076 H 104.14 3.22354 -3.92492 0
M  V30 1077 H 104.07 4.51886 -2.70383 0
M  V30 1078 H 106.561 3.01707 -2.27555 0
M  V30 1079 H 106.874 5.77311 -5.13743 0
M  V30 1080 H 105.219 5.19653 -4.61503 0
M  V30 1081 H 108.41 3.68586 -2.88551 0
M  V30 1082 H 108.583 4.94279 -4.19037 0
M  V30 1083 N 101.989 0.842826 1.3317 0
M  V30 1084 C 103.236 0.440447 1.97652 0
M  V30 1085 C 103.564 -1.00123 1.6675 0
M  V30 1086 O 102.819 -1.7155 0.941761 0
M  V30 1087 C 103.118 0.612607 3.52111 0
M  V30 1088 C 102.784 2.02297 4.02972 0
M  V30 1089 C 101.446 2.40874 4.16573 0
M  V30 1090 C 103.798 2.94402 4.30089 0
M  V30 1091 C 101.126 3.70852 4.54627 0
M  V30 1092 C 103.478 4.23865 4.69597 0
M  V30 1093 C 102.142 4.62392 4.81404 0
M  V30 1094 H 101.412 0.161171 0.72326 0
M  V30 1095 H 104.059 1.07061 1.58777 0
M  V30 1096 H 102.364 -0.100849 3.9167 0
M  V30 1097 H 104.061 0.2815 4.00011 0
M  V30 1098 H 100.651 1.71338 3.92863 0
M  V30 1099 H 104.835 2.65835 4.19101 0
M  V30 1100 H 100.091 4.00501 4.61962 0
M  V30 1101 H 104.265 4.95306 4.89536 0
M  V30 1102 H 101.892 5.63154 5.10648 0
M  V30 1103 N 103.467 -1.45747 0.599634 0
M  V30 1104 C 104.714 -2.02292 0.0917284 0
M  V30 1105 C 105.042 -1.46906 -1.27472 0
M  V30 1106 O 104.297 -0.630652 -1.8526 0
M  V30 1107 C 104.596 -3.57399 -0.00602758 0
M  V30 1108 C 104.262 -4.31902 1.29503 0
M  V30 1109 C 102.924 -4.51974 1.65144 0
M  V30 1110 C 105.276 -4.74551 2.15525 0
M  V30 1111 C 102.604 -5.11949 2.86574 0
M  V30 1112 C 104.956 -5.35868 3.36196 0
M  V30 1113 C 103.62 -5.54165 3.72099 0
M  V30 1114 H 102.89 -0.740239 0.0335658 0
M  V30 1115 H 105.537 -1.7491 0.779661 0
M  V30 1116 H 103.842 -3.84014 -0.777183 0
M  V30 1117 H 105.539 -3.98846 -0.415038 0
M  V30 1118 H 102.129 -4.16588 1.00761 0
M  V30 1119 H 106.313 -4.58784 1.8929 0
M  V30 1120 H 101.569 -5.24305 3.14507 0
M  V30 1121 H 105.743 -5.6787 4.03109 0
M  V30 1122 H 103.37 -6.00406 4.6628 0
M  V30 1123 N 104.945 -0.338344 -1.53925 0
M  V30 1124 C 106.192 0.259758 -2.00827 0
M  V30 1125 C 106.52 1.50973 -1.22628 0
M  V30 1126 O 105.775 1.93379 -0.300509 0
M  V30 1127 C 106.074 0.62448 -3.51902 0
M  V30 1128 C 105.74 -0.528006 -4.47798 0
M  V30 1129 C 104.402 -0.844298 -4.73735 0
M  V30 1130 C 106.754 -1.30143 -5.0469 0
M  V30 1131 C 104.082 -1.93648 -5.53821 0
M  V30 1132 C 106.434 -2.38382 -5.85967 0
M  V30 1133 C 105.098 -2.70576 -6.10201 0
M  V30 1134 H 104.368 0.0950523 -0.734878 0
M  V30 1135 H 107.015 -0.465182 -1.85764 0
M  V30 1136 H 105.32 1.43006 -3.64769 0
M  V30 1137 H 107.017 1.09905 -3.85645 0
M  V30 1138 H 103.607 -0.271421 -4.2774 0
M  V30 1139 H 107.791 -1.07033 -4.84621 0
M  V30 1140 H 103.047 -2.19021 -5.70824 0
M  V30 1141 H 107.221 -2.98746 -6.29066 0
M  V30 1142 H 104.848 -3.55333 -6.72044 0
M  V30 1143 N 106.423 1.57458 -0.0668435 0
M  V30 1144 C 107.371 2.13639 0.919851 0
M  V30 1145 C 108.365 1.07204 1.31163 0
M  V30 1146 O 109.571 1.25591 1.28945 0
M  V30 1147 H 105.946 0.683048 0.314562 0
M  V30 1148 H 107.917 2.95415 0.421047 0
M  V30 1149 C 106.666 2.70892 2.17975 0
M  V30 1150 H 105.989 3.5246 1.88711 0
M  V30 1151 H 107.429 3.13803 2.85138 0
M  V30 1152 C 105.888 1.65414 2.93496 0
M  V30 1153 O 106.418 1.07619 3.87015 0
M  V30 1154 N 104.624 1.36564 2.56512 0
M  V30 1155 H 104.171 1.83751 1.80536 0
M  V30 1156 H 104.129 0.66223 3.07347 0
M  V30 1157 N 107.901 -0.206675 1.56239 0
M  V30 1158 C 109.15 -0.926964 1.79138 0
M  V30 1159 C 109.463 -1.84901 0.638043 0
M  V30 1160 O 110.669 -2.60906 0.751033 0
M  V30 1161 C 109.125 -1.6986 3.17294 0
M  V30 1162 C 108.733 -0.821956 4.40395 0
M  V30 1163 C 110.477 -2.40922 3.4951 0
M  V30 1164 C 108.384 -1.59179 5.69575 0
M  V30 1165 H 107.314 -0.349864 0.667915 0
M  V30 1166 H 109.965 -0.180487 1.8261 0
M  V30 1167 H 108.347 -2.48853 3.08039 0
M  V30 1168 H 109.521 -0.0715019 4.60745 0
M  V30 1169 H 107.836 -0.222741 4.15804 0
M  V30 1170 H 110.433 -2.99047 4.43255 0
M  V30 1171 H 110.776 -3.14542 2.72707 0
M  V30 1172 H 111.309 -1.68905 3.60161 0
M  V30 1173 H 108.048 -0.898589 6.49312 0
M  V30 1174 H 107.568 -2.31648 5.53262 0
M  V30 1175 H 109.247 -2.14862 6.10281 0
M  V30 1176 N 109.379 -1.50304 -0.473955 0
M  V30 1177 C 110.626 -1.6115 -1.22625 0
M  V30 1178 C 110.954 -0.310517 -1.92005 0
M  V30 1179 O 110.209 0.703419 -1.82621 0
M  V30 1180 C 110.508 -2.73938 -2.29549 0
M  V30 1181 C 110.174 -4.14519 -1.7744 0
M  V30 1182 C 108.836 -4.5277 -1.62949 0
M  V30 1183 C 111.188 -5.02392 -1.3875 0
M  V30 1184 C 108.516 -5.76639 -1.08187 0
M  V30 1185 C 110.868 -6.26805 -0.854309 0
M  V30 1186 C 109.532 -6.63861 -0.696011 0
M  V30 1187 H 108.802 -0.589691 -0.448715 0
M  V30 1188 H 111.449 -1.84228 -0.522705 0
M  V30 1189 H 109.754 -2.44937 -3.05799 0
M  V30 1190 H 111.451 -2.79534 -2.87509 0
M  V30 1191 H 108.041 -3.8434 -1.89685 0
M  V30 1192 H 112.225 -4.73474 -1.4878 0
M  V30 1193 H 107.481 -6.04027 -0.946666 0
M  V30 1194 H 111.655 -6.94258 -0.545843 0
M  V30 1195 H 109.282 -7.59722 -0.26952 0
M  V30 1196 N 110.857 0.726932 -1.39834 0
M  V30 1197 C 112.085 1.51613 -1.40787 0
M  V30 1198 C 112.5 1.88799 -0.00451505 0
M  V30 1199 O 111.857 1.54662 0.968809 0
M  V30 1200 C 111.908 2.79863 -2.28821 0
M  V30 1201 O 111.629 2.44253 -3.63692 0
M  V30 1202 C 113.13 3.73837 -2.38245 0
M  V30 1203 H 110.35 0.468264 -0.480593 0
M  V30 1204 H 112.894 0.897607 -1.83748 0
M  V30 1205 H 111.049 3.38027 -1.89252 0
M  V30 1206 H 111.463 3.26695 -4.1033 0
M  V30 1207 H 112.937 4.60699 -3.04073 0
M  V30 1208 H 113.414 4.16153 -1.40403 0
M  V30 1209 H 114.02 3.21589 -2.78317 0
M  V30 1210 N 112.336 1.25143 0.95797 0
M  V30 1211 C 113.752 1.01892 1.22842 0
M  V30 1212 C 113.952 -0.266311 1.99732 0
M  V30 1213 O 113.008 -0.979913 2.3271 0
M  V30 1214 C 114.321 2.24004 2.00606 0
M  V30 1215 C 115.869 2.28731 2.13662 0
M  V30 1216 C 116.344 3.5049 2.94823 0
M  V30 1217 N 117.835 3.50866 3.02403 0
M  V30 1218 C 118.57 4.4174 3.65586 0
M  V30 1219 N 118.066 5.42882 4.30408 0
M  V30 1220 N 119.859 4.29429 3.62694 0
M  V30 1221 H 112.01 2.07718 0.443493 0
M  V30 1222 H 114.273 0.912031 0.258657 0
M  V30 1223 H 113.979 3.17395 1.51503 0
M  V30 1224 H 113.853 2.26907 3.01319 0
M  V30 1225 H 116.24 1.35865 2.61963 0
M  V30 1226 H 116.321 2.29848 1.12265 0
M  V30 1227 H 115.965 4.43676 2.47213 0
M  V30 1228 H 115.895 3.46617 3.96439 0
M  V30 1229 H 118.386 2.777 2.56302 0
M  V30 1230 H 118.699 6.0844 4.76467 0
M  V30 1231 H 117.044 5.46758 4.29047 0
M  V30 1232 H 120.235 3.49643 3.11236 0
M  V30 1233 H 120.408 5.00448 4.1165 0
M  V30 1234 N 113.814 -1.1601 1.06675 0
M  V30 1235 C 114.746 -2.20115 0.638921 0
M  V30 1236 C 115.759 -1.59916 -0.305057 0
M  V30 1237 O 116.948 -1.78245 -0.0954446 0
M  V30 1238 C 114.048 -3.38798 -0.0830083 0
M  V30 1239 C 113.221 -4.2855 0.875426 0
M  V30 1240 C 112.28 -5.25849 0.192042 0
M  V30 1241 O 111.306 -5.63102 0.830921 0
M  V30 1242 N 112.508 -5.70648 -1.06493 0
M  V30 1243 H 115.273 -2.57439 1.53444 0
M  V30 1244 H 112.834 -1.31057 0.950557 0
M  V30 1245 H 114.826 -4.00936 -0.550685 0
M  V30 1246 H 113.396 -2.99947 -0.880386 0
M  V30 1247 H 112.616 -3.63617 1.52238 0
M  V30 1248 H 113.904 -4.85393 1.52548 0
M  V30 1249 H 113.302 -5.42482 -1.60405 0
M  V30 1250 H 111.859 -6.34859 -1.47641 0
M  V30 1251 N 115.292 -0.849877 -1.32721 0
M  V30 1252 C 116.532 -0.457146 -1.99222 0
M  V30 1253 C 116.896 0.968038 -1.6581 0
M  V30 1254 O 118.097 1.46507 -2.25364 0
M  V30 1255 C 116.368 -0.683966 -3.50794 0
M  V30 1256 S 117.927 -0.388095 -4.3708 0
M  V30 1257 H 114.745 -0.171464 -0.690015 0
M  V30 1258 H 117.347 -1.10155 -1.61512 0
M  V30 1259 H 116.051 -1.72038 -3.726 0
M  V30 1260 H 115.582 -0.0258086 -3.93392 0
M  V30 1261 H 117.597 0.787791 -4.89906 0
M  V30 1262 N 116.77 1.45427 -0.607355 0
M  V30 1263 C 117.68 2.34325 0.113463 0
M  V30 1264 C 118.696 1.51226 0.860617 0
M  V30 1265 O 119.872 1.84029 0.818255 0
M  V30 1266 C 116.937 3.28839 1.09844 0
M  V30 1267 C 115.998 4.27844 0.353271 0
M  V30 1268 C 115.231 5.17842 1.29133 0
M  V30 1269 O 115.454 5.11264 2.52913 0
M  V30 1270 O 114.388 5.96713 0.788523 0
M  V30 1271 H 118.214 2.97364 -0.617094 0
M  V30 1272 H 115.799 1.44807 -0.367619 0
M  V30 1273 H 117.681 3.8708 1.66575 0
M  V30 1274 H 116.356 2.68365 1.81003 0
M  V30 1275 H 115.263 3.7322 -0.256494 0
M  V30 1276 H 116.596 4.91173 -0.317822 0
M  V30 1277 N 118.248 0.346503 1.53744 0
M  V30 1278 C 119.158 -0.517293 2.28826 0
M  V30 1279 C 120.174 -1.10935 1.3405 0
M  V30 1280 O 121.35 -1.1244 1.6709 0
M  V30 1281 C 118.415 -1.65098 3.04866 0
M  V30 1282 C 117.476 -1.0884 4.15274 0
M  V30 1283 C 116.709 -2.16806 4.87679 0
M  V30 1284 O 116.932 -3.3758 4.59778 0
M  V30 1285 O 115.866 -1.80934 5.74061 0
M  V30 1286 H 119.692 0.0931396 3.03557 0
M  V30 1287 H 117.277 0.111458 1.48984 0
M  V30 1288 H 119.159 -2.31053 3.5241 0
M  V30 1289 H 117.834 -2.24717 2.32989 0
M  V30 1290 H 116.741 -0.3933 3.72027 0
M  V30 1291 H 118.074 -0.537036 4.89261 0
M  V30 1292 N 119.726 -1.57421 0.075193 0
M  V30 1293 C 120.973 -1.93618 -0.593146 0
M  V30 1294 C 121.301 -0.955484 -1.69413 0
M  V30 1295 O 120.556 0.0283251 -1.9568 0
M  V30 1296 C 120.855 -3.36428 -1.20626 0
M  V30 1297 C 120.521 -4.50307 -0.231078 0
M  V30 1298 C 119.183 -4.81186 0.0371936 0
M  V30 1299 C 121.535 -5.19374 0.435888 0
M  V30 1300 C 118.863 -5.78466 0.979461 0
M  V30 1301 C 121.215 -6.17665 1.3665 0
M  V30 1302 C 119.879 -6.46958 1.6432 0
M  V30 1303 H 119.149 -0.708499 -0.217047 0
M  V30 1304 H 121.796 -1.90937 0.146793 0
M  V30 1305 H 120.101 -3.35592 -2.02201 0
M  V30 1306 H 121.798 -3.61727 -1.73073 0
M  V30 1307 H 118.388 -4.26227 -0.450357 0
M  V30 1308 H 122.572 -4.95711 0.241748 0
M  V30 1309 H 117.828 -5.99487 1.20106 0
M  V30 1310 H 122.002 -6.70284 1.88924 0
M  V30 1311 H 119.629 -7.2215 2.37494 0
M  V30 1312 N 121.204 0.198386 -1.56346 0
M  V30 1313 C 122.453 0.917451 -1.79627 0
M  V30 1314 C 122.766 1.8456 -0.64784 0
M  V30 1315 O 123.972 2.60504 -0.764859 0
M  V30 1316 C 122.428 1.68175 -3.18191 0
M  V30 1317 C 122.036 0.798589 -4.40825 0
M  V30 1318 C 123.78 2.39065 -3.50782 0
M  V30 1319 C 121.687 1.56157 -5.70411 0
M  V30 1320 H 120.617 0.346317 -0.669762 0
M  V30 1321 H 123.268 0.170801 -1.82703 0
M  V30 1322 H 121.65 2.47216 -3.09354 0
M  V30 1323 H 122.824 0.0470665 -4.60776 0
M  V30 1324 H 121.139 0.200686 -4.15916 0
M  V30 1325 H 123.736 2.96692 -4.44835 0
M  V30 1326 H 124.079 3.13091 -2.74371 0
M  V30 1327 H 124.612 1.66993 -3.61052 0
M  V30 1328 H 121.351 0.864142 -6.49779 0
M  V30 1329 H 120.871 2.2871 -5.54483 0
M  V30 1330 H 122.55 2.11622 -6.11412 0
M  V30 1331 N 122.682 1.50554 0.465978 0
M  V30 1332 C 123.912 1.65323 1.23903 0
M  V30 1333 C 124.32 0.338051 1.86155 0
M  V30 1334 O 123.663 -0.690518 1.70228 0
M  V30 1335 C 123.725 2.69048 2.3844 0
M  V30 1336 C 123.389 4.12462 1.96784 0
M  V30 1337 C 124.386 4.98168 1.48745 0
M  V30 1338 C 122.071 4.58407 2.05349 0
M  V30 1339 C 124.065 6.27868 1.0982 0
M  V30 1340 C 121.752 5.88112 1.66035 0
M  V30 1341 C 122.75 6.72668 1.18349 0
M  V30 1342 O 122.438 7.99951 0.795825 0
M  V30 1343 H 122.17 0.558629 0.38067 0
M  V30 1344 H 124.724 1.97561 0.562022 0
M  V30 1345 H 122.954 2.32062 3.09328 0
M  V30 1346 H 124.643 2.72985 3.0039 0
M  V30 1347 H 125.409 4.63885 1.41546 0
M  V30 1348 H 121.288 3.92735 2.41414 0
M  V30 1349 H 124.832 6.93819 0.725293 0
M  V30 1350 H 120.729 6.21914 1.72895 0
M  V30 1351 H 121.497 8.13265 0.924222 0
M  V30 1352 N 124.16 -0.719506 1.40217 0
M  V30 1353 C 125.408 -1.47641 1.3801 0
M  V30 1354 C 125.729 -1.94992 -0.018145 0
M  V30 1355 O 124.999 -1.70073 -0.972207 0
M  V30 1356 H 123.579 -0.547744 0.507923 0
M  V30 1357 H 126.241 -0.853187 1.75233 0
M  V30 1358 H 125.337 -2.35112 2.05253 0
M  V30 1359 N 125.638 -1.25649 -0.95132 0
M  V30 1360 C 126.886 -1.10375 -1.69298 0
M  V30 1361 C 127.207 0.355339 -1.91735 0
M  V30 1362 O 126.477 1.25188 -1.50681 0
M  V30 1363 H 125.057 -0.405461 -0.627384 0
M  V30 1364 H 127.719 -1.57823 -1.14358 0
M  V30 1365 H 126.815 -1.61465 -2.67087 0
M  V30 1366 N 127.117 1.15442 -1.07289 0
M  V30 1367 C 128.357 1.8788 -0.805012 0
M  V30 1368 C 128.721 1.80413 0.656907 0
M  V30 1369 O 129.922 2.47874 1.0398 0
M  V30 1370 C 128.193 3.3298 -1.29843 0
M  V30 1371 S 129.752 4.23158 -1.16114 0
M  V30 1372 H 126.57 0.64839 -0.291739 0
M  V30 1373 H 129.172 1.39285 -1.37186 0
M  V30 1374 H 127.876 3.35958 -2.35712 0
M  V30 1375 H 127.407 3.86629 -0.726767 0
M  V30 1376 H 129.422 4.96103 -0.0982778 0
M  V30 1377 N 128.595 0.856903 1.32268 0
M  V30 1378 C 129.505 0.306131 2.32594 0
M  V30 1379 C 130.521 -0.577209 1.64147 0
M  V30 1380 O 131.697 -0.477043 1.95669 0
M  V30 1381 C 128.762 -0.494561 3.43154 0
M  V30 1382 C 127.823 0.415186 4.27288 0
M  V30 1383 C 127.056 -0.347387 5.32568 0
M  V30 1384 O 127.279 -1.57708 5.48165 0
M  V30 1385 O 126.213 0.287982 6.01211 0
M  V30 1386 H 130.039 1.13737 2.81598 0
M  V30 1387 H 127.624 0.619902 1.35932 0
M  V30 1388 H 129.506 -0.948944 4.10576 0
M  V30 1389 H 128.181 -1.30257 2.96336 0
M  V30 1390 H 127.088 0.917793 3.62667 0
M  V30 1391 H 128.421 1.18844 4.77637 0
M  V30 1392 N 130.073 -1.45103 0.615059 0
M  V30 1393 C 131.321 -2.01784 0.112955 0
M  V30 1394 C 131.642 -1.48504 -1.26378 0
M  V30 1395 O 130.912 -0.682245 -1.83636 0
M  V30 1396 H 129.492 -0.745993 0.0387668 0
M  V30 1397 H 132.154 -1.77808 0.798141 0
M  V30 1398 H 131.25 -3.12025 0.0684069 0
M  V30 1399 N 131.551 -0.354651 -1.53558 0
M  V30 1400 C 132.499 0.512195 -2.26891 0
M  V30 1401 C 133.493 1.09263 -1.29452 0
M  V30 1402 O 134.699 1.03709 -1.47121 0
M  V30 1403 H 131.074 0.183878 -0.729173 0
M  V30 1404 H 133.045 -0.128202 -2.98124 0
M  V30 1405 C 131.794 1.64563 -3.06291 0
M  V30 1406 H 131.117 1.20829 -3.81104 0
M  V30 1407 H 132.557 2.22711 -3.60799 0
M  V30 1408 C 131.016 2.58158 -2.16462 0
M  V30 1409 O 131.546 3.60695 -1.76811 0
M  V30 1410 N 129.752 2.27096 -1.81317 0
M  V30 1411 H 129.299 1.43751 -2.1376 0
M  V30 1412 H 129.257 2.89975 -1.21498 0
M  V30 1413 N 133.029 1.57378 -0.0835403 0
M  V30 1414 C 133.961 2.10389 0.909338 0
M  V30 1415 C 134.974 1.03858 1.25369 0
M  V30 1416 O 136.163 1.31338 1.20882 0
M  V30 1417 C 133.263 2.55908 2.2218 0
M  V30 1418 C 132.436 3.86145 2.05453 0
M  V30 1419 C 131.495 4.17633 3.20108 0
M  V30 1420 O 130.521 4.87043 2.94581 0
M  V30 1421 N 131.723 3.72113 4.45547 0
M  V30 1422 H 134.488 2.962 0.456657 0
M  V30 1423 H 132.049 1.61579 0.101877 0
M  V30 1424 H 134.041 2.74027 2.97811 0
M  V30 1425 H 132.611 1.75171 2.58909 0
M  V30 1426 H 131.831 3.7729 1.1422 0
M  V30 1427 H 133.119 4.7137 1.91541 0
M  V30 1428 H 132.517 3.16062 4.69171 0
M  V30 1429 H 131.074 3.95409 5.18165 0
M  V30 1430 N 134.507 -0.190092 1.56449 0
M  V30 1431 C 135.455 -1.25501 1.95837 0
M  V30 1432 C 136.449 -1.4685 0.844485 0
M  V30 1433 O 137.655 -1.47651 1.02952 0
M  V30 1434 H 134.03 -0.421447 0.622805 0
M  V30 1435 H 136.001 -0.895821 2.84636 0
M  V30 1436 C 134.75 -2.59124 2.31841 0
M  V30 1437 H 134.073 -2.43514 3.17082 0
M  V30 1438 H 135.513 -3.32371 2.6326 0
M  V30 1439 C 133.972 -3.16488 1.15486 0
M  V30 1440 O 134.502 -3.99365 0.432535 0
M  V30 1441 N 132.708 -2.75305 0.930349 0
M  V30 1442 H 132.255 -2.08013 1.51948 0
M  V30 1443 H 132.213 -3.14024 0.153634 0
M  V30 1444 N 135.985 -1.50799 -0.457987 0
M  V30 1445 C 137.401 -1.38515 -0.792819 0
M  V30 1446 C 137.601 -0.451409 -1.96379 0
M  V30 1447 O 136.657 0.10112 -2.52297 0
M  V30 1448 C 137.97 -2.80149 -1.09258 0
M  V30 1449 C 139.518 -2.89156 -1.19825 0
M  V30 1450 C 139.993 -4.31651 -1.53106 0
M  V30 1451 N 141.484 -4.34662 -1.60072 0
M  V30 1452 C 142.219 -5.41928 -1.87354 0
M  V30 1453 N 141.715 -6.59384 -2.12568 0
M  V30 1454 N 143.508 -5.29385 -1.88965 0
M  V30 1455 H 135.659 -2.10073 0.313511 0
M  V30 1456 H 137.922 -0.944803 0.0777862 0
M  V30 1457 H 137.628 -3.50374 -0.305084 0
M  V30 1458 H 137.502 -3.18204 -2.02549 0
M  V30 1459 H 139.889 -2.19141 -1.97639 0
M  V30 1460 H 139.97 -2.54626 -0.244821 0
M  V30 1461 H 139.614 -5.02208 -0.758266 0
M  V30 1462 H 139.544 -4.63678 -2.49621 0
M  V30 1463 H 142.035 -3.49973 -1.42573 0
M  V30 1464 H 142.348 -7.36934 -2.32696 0
M  V30 1465 H 140.693 -6.62535 -2.09933 0
M  V30 1466 H 143.884 -4.36616 -1.68772 0
M  V30 1467 H 144.057 -6.13066 -2.09891 0
M  V30 1468 N 137.463 0.71206 -1.40597 0
M  V30 1469 C 138.71 1.47197 -1.39065 0
M  V30 1470 C 139.038 1.94499 0.00583891 0
M  V30 1471 O 138.293 1.68752 0.99102 0
M  V30 1472 C 138.592 2.71039 -2.32965 0
M  V30 1473 C 138.258 2.42484 -3.80148 0
M  V30 1474 C 136.92 2.34406 -4.20247 0
M  V30 1475 C 139.272 2.18598 -4.73143 0
M  V30 1476 C 136.6 2.00516 -5.51371 0
M  V30 1477 C 138.952 1.8622 -6.0457 0
M  V30 1478 C 137.616 1.76626 -6.43708 0
M  V30 1479 H 136.886 0.538634 -0.508876 0
M  V30 1480 H 139.533 0.815325 -1.73276 0
M  V30 1481 H 137.838 3.41558 -1.91951 0
M  V30 1482 H 139.535 3.29138 -2.29061 0
M  V30 1483 H 136.125 2.49659 -3.4838 0
M  V30 1484 H 140.309 2.23793 -4.42979 0
M  V30 1485 H 135.565 1.91628 -5.80593 0
M  V30 1486 H 139.739 1.66752 -6.76141 0
M  V30 1487 H 137.366 1.50133 -7.45228 0
M  V30 1488 N 138.941 1.26152 0.944643 0
M  V30 1489 C 139.851 1.09176 2.07648 0
M  V30 1490 C 140.867 0.0261935 1.7398 0
M  V30 1491 O 142.043 0.229208 2.00091 0
M  V30 1492 C 139.108 0.722915 3.39079 0
M  V30 1493 C 138.169 1.86752 3.86552 0
M  V30 1494 C 137.402 1.51617 5.11711 0
M  V30 1495 O 137.625 0.416331 5.68879 0
M  V30 1496 O 136.559 2.34975 5.54139 0
M  V30 1497 H 140.385 2.0412 2.24875 0
M  V30 1498 H 137.97 1.05182 1.061 0
M  V30 1499 H 139.852 0.529787 4.18056 0
M  V30 1500 H 138.527 -0.197159 3.23099 0
M  V30 1501 H 137.434 2.11558 3.08535 0
M  V30 1502 H 138.767 2.76719 4.07047 0
M  V30 1503 N 140.419 -1.14872 1.07899 0
M  V30 1504 C 141.644 -1.90202 0.826926 0
M  V30 1505 C 142.069 -1.77774 -0.614664 0
M  V30 1506 O 141.427 -1.11431 -1.43013 0
M  V30 1507 C 141.475 -3.38352 1.24702 0
M  V30 1508 O 140.579 -4.10497 0.39575 0
M  V30 1509 H 139.92 -0.591968 0.300782 0
M  V30 1510 H 142.45 -1.45437 1.43907 0
M  V30 1511 H 142.46 -3.89156 1.22563 0
M  V30 1512 H 141.135 -3.46715 2.29698 0
M  V30 1513 H 139.712 -3.69796 0.480117 0
M  V30 1514 N 141.898 -0.863906 -1.31812 0
M  V30 1515 C 142.828 -0.330843 -2.31144 0
M  V30 1516 C 143.809 0.575005 -1.60087 0
M  V30 1517 O 144.994 0.493304 -1.8783 0
M  V30 1518 C 142.124 0.47374 -3.44054 0
M  V30 1519 C 141.078 -0.338481 -4.26659 0
M  V30 1520 C 140.404 0.591412 -5.31419 0
M  V30 1521 C 141.704 -1.56926 -4.98168 0
M  V30 1522 H 143.398 -1.16086 -2.75979 0
M  V30 1523 H 140.944 -0.559657 -1.32679 0
M  V30 1524 H 142.897 0.857143 -4.12591 0
M  V30 1525 H 141.621 1.33721 -2.9797 0
M  V30 1526 H 140.28 -0.703754 -3.59782 0
M  V30 1527 H 139.928 1.45199 -4.81587 0
M  V30 1528 H 139.628 0.0519022 -5.87577 0
M  V30 1529 H 141.152 0.97179 -6.02817 0
M  V30 1530 H 142.566 -1.25764 -5.59336 0
M  V30 1531 H 140.963 -2.04739 -5.64094 0
M  V30 1532 H 142.033 -2.32544 -4.25501 0
M  V30 1533 N 143.376 1.44774 -0.622745 0
M  V30 1534 C 144.286 2.34433 0.0886031 0
M  V30 1535 C 145.302 1.52131 0.844529 0
M  V30 1536 O 146.478 1.84886 0.798691 0
M  V30 1537 C 143.543 3.29986 1.0635 0
M  V30 1538 C 142.604 4.28195 0.307873 0
M  V30 1539 C 141.837 5.19183 1.23633 0
M  V30 1540 O 142.06 5.13918 2.47476 0
M  V30 1541 O 140.994 5.97515 0.725189 0
M  V30 1542 H 144.82 2.96693 -0.648599 0
M  V30 1543 H 142.405 1.44408 -0.382957 0
M  V30 1544 H 144.287 3.88825 1.6246 0
M  V30 1545 H 142.962 2.70269 1.78146 0
M  V30 1546 H 141.869 3.72927 -0.296064 0
M  V30 1547 H 143.202 4.90808 -0.3699 0
M  V30 1548 N 144.854 0.36279 1.53368 0
M  V30 1549 C 145.764 -0.492994 2.29362 0
M  V30 1550 C 146.78 -1.09507 1.35219 0
M  V30 1551 O 147.956 -1.10662 1.68273 0
M  V30 1552 C 145.021 -1.61855 3.066 0
M  V30 1553 C 144.082 -1.04429 4.16405 0
M  V30 1554 C 143.315 -2.11621 4.89951 0
M  V30 1555 O 143.538 -3.32684 4.63333 0
M  V30 1556 O 142.472 -1.74835 5.75948 0
M  V30 1557 H 146.298 0.125331 3.03441 0
M  V30 1558 H 143.883 0.127253 1.48857 0
M  V30 1559 H 145.765 -2.27302 3.54841 0
M  V30 1560 H 144.44 -2.22233 2.3536 0
M  V30 1561 H 143.347 -0.353819 3.72423 0
M  V30 1562 H 144.68 -0.485113 4.89804 0
M  V30 1563 N 146.332 -1.57332 0.0918853 0
M  V30 1564 C 147.572 -1.96117 -0.575988 0
M  V30 1565 C 147.936 -0.972499 -1.65549 0
M  V30 1566 O 149.137 -1.24872 -2.38034 0
M  V30 1567 C 147.408 -3.39407 -1.11973 0
M  V30 1568 S 148.967 -4.00185 -1.79992 0
M  V30 1569 H 145.785 -0.685682 -0.188045 0
M  V30 1570 H 148.387 -1.94755 0.170525 0
M  V30 1571 H 147.091 -4.09131 -0.322504 0
M  V30 1572 H 146.622 -3.44358 -1.90214 0
M  V30 1573 H 148.637 -3.88728 -3.08391 0
M  V30 1574 N 147.81 0.181792 -1.56548 0
M  V30 1575 C 148.757 1.22521 -1.95595 0
M  V30 1576 C 149.727 1.4454 -0.818373 0
M  V30 1577 O 150.912 1.57454 -1.07763 0
M  V30 1578 C 148.052 2.56193 -2.31212 0
M  V30 1579 C 147.165 2.41641 -3.58097 0
M  V30 1580 C 146.3 3.68108 -3.82975 0
M  V30 1581 C 145.339 3.48445 -5.03242 0
M  V30 1582 N 144.476 4.66956 -5.24306 0
M  V30 1583 H 149.316 0.885226 -2.84548 0
M  V30 1584 H 146.853 0.425718 -1.40805 0
M  V30 1585 H 148.811 3.34088 -2.49882 0
M  V30 1586 H 147.441 2.88208 -1.45382 0
M  V30 1587 H 146.493 1.54976 -3.474 0
M  V30 1588 H 147.805 2.23052 -4.46149 0
M  V30 1589 H 146.959 4.54441 -4.01956 0
M  V30 1590 H 145.698 3.89666 -2.93278 0
M  V30 1591 H 144.703 2.60499 -4.8417 0
M  V30 1592 H 145.928 3.2832 -5.9446 0
M  V30 1593 H 143.874 4.88752 -4.37559 0
M  V30 1594 H 143.791 4.51242 -6.06561 0
M  V30 1595 H 145.059 5.54602 -5.47756 0
M  V30 1596 N 149.288 1.51039 0.449983 0
M  V30 1597 C 150.235 1.71439 1.54523 0
M  V30 1598 C 151.205 0.555871 1.56522 0
M  V30 1599 O 152.39 0.788871 1.73728 0
M  V30 1600 C 149.53 1.83384 2.92343 0
M  V30 1601 C 148.643 3.10873 2.9997 0
M  V30 1602 C 147.778 3.13488 4.28834 0
M  V30 1603 C 146.817 4.35343 4.30282 0
M  V30 1604 N 145.954 4.35579 5.5065 0
M  V30 1605 H 150.794 2.64934 1.36433 0
M  V30 1606 H 148.331 1.31312 0.662982 0
M  V30 1607 H 150.289 1.88291 3.72293 0
M  V30 1608 H 148.919 0.933086 3.0902 0
M  V30 1609 H 147.971 3.15336 2.12761 0
M  V30 1610 H 149.283 4.00814 2.96901 0
M  V30 1611 H 148.437 3.17241 5.17149 0
M  V30 1612 H 147.176 2.21414 4.34543 0
M  V30 1613 H 146.181 4.3178 3.40362 0
M  V30 1614 H 147.406 5.28668 4.26248 0
M  V30 1615 H 145.352 3.46369 5.57104 0
M  V30 1616 H 145.269 5.19313 5.49409 0
M  V30 1617 H 146.537 4.43507 6.41032 0
M  V30 1618 N 150.766 -0.704594 1.40972 0
M  V30 1619 C 151.699 -1.82861 1.36518 0
M  V30 1620 C 152.677 -1.6091 0.23382 0
M  V30 1621 O 153.861 -1.83778 0.419271 0
M  V30 1622 C 150.988 -3.1939 1.12729 0
M  V30 1623 C 150.034 -3.60148 2.28463 0
M  V30 1624 S 150.867 -3.65994 3.90907 0
M  V30 1625 C 152.023 -5.05264 3.69403 0
M  V30 1626 H 152.256 -1.86361 2.3164 0
M  V30 1627 H 149.789 -0.872439 1.27389 0
M  V30 1628 H 151.747 -3.98211 0.996893 0
M  V30 1629 H 150.408 -3.1351 0.192427 0
M  V30 1630 H 149.601 -4.59309 2.07489 0
M  V30 1631 H 149.203 -2.88612 2.37863 0
M  V30 1632 H 151.495 -5.92504 3.28551 0
M  V30 1633 H 152.438 -5.31278 4.68134 0
M  V30 1634 H 152.846 -4.76377 3.02862 0
M  V30 1635 N 152.244 -1.26651 -0.937939 0
M  V30 1636 C 153.484 -1.13611 -1.69917 0
M  V30 1637 C 153.848 0.314687 -1.89404 0
M  V30 1638 O 155.049 0.567285 -2.62746 0
M  V30 1639 C 153.32 -1.88742 -3.03498 0
M  V30 1640 S 154.879 -1.91794 -3.94665 0
M  V30 1641 H 151.697 -0.405767 -0.583844 0
M  V30 1642 H 154.299 -1.60416 -1.11745 0
M  V30 1643 H 153.003 -2.9336 -2.86999 0
M  V30 1644 H 152.534 -1.42391 -3.66727 0
M  V30 1645 H 154.549 -1.00698 -4.85875 0
M  V30 1646 N 153.722 1.14298 -1.08507 0
M  V30 1647 C 154.95 1.89219 -0.836876 0
M  V30 1648 C 155.365 1.78638 0.611054 0
M  V30 1649 O 154.722 1.14643 1.41998 0
M  V30 1650 C 154.773 3.39158 -1.25116 0
M  V30 1651 O 154.494 3.49449 -2.64229 0
M  V30 1652 C 155.995 4.31073 -1.03398 0
M  V30 1653 H 153.215 0.599328 -0.301739 0
M  V30 1654 H 155.759 1.44746 -1.44461 0
M  V30 1655 H 153.914 3.81251 -0.687514 0
M  V30 1656 H 154.328 4.42589 -2.81452 0
M  V30 1657 H 155.802 5.34646 -1.37323 0
M  V30 1658 H 156.279 4.3919 0.0289259 0
M  V30 1659 H 156.885 3.94738 -1.58311 0
M  V30 1660 N 155.201 0.870884 1.31352 0
M  V30 1661 C 156.617 0.562932 1.49343 0
M  V30 1662 C 156.817 -0.902725 1.80148 0
M  V30 1663 O 155.873 -1.68484 1.88067 0
M  V30 1664 C 157.186 1.46393 2.62659 0
M  V30 1665 C 158.734 1.46607 2.76542 0
M  V30 1666 C 159.209 2.35266 3.92955 0
M  V30 1667 N 160.7 2.33151 4.00243 0
M  V30 1668 C 161.435 2.98471 4.89594 0
M  V30 1669 N 160.931 3.72964 5.8384 0
M  V30 1670 N 162.724 2.87775 4.82848 0
M  V30 1671 H 154.875 1.81923 1.09626 0
M  V30 1672 H 157.138 0.777934 0.541777 0
M  V30 1673 H 156.844 2.50689 2.46674 0
M  V30 1674 H 156.718 1.16314 3.58819 0
M  V30 1675 H 159.105 0.43069 2.9194 0
M  V30 1676 H 159.186 1.8071 1.81046 0
M  V30 1677 H 158.83 3.38881 3.78315 0
M  V30 1678 H 158.76 1.98487 4.87761 0
M  V30 1679 H 161.251 1.79006 3.32814 0
M  V30 1680 H 161.564 4.19932 6.4875 0
M  V30 1681 H 159.909 3.77073 5.83816 0
M  V30 1682 H 163.1 2.29116 4.08195 0
M  V30 1683 H 163.273 3.38961 5.52277 0
M  V30 1684 N 156.679 -1.44442 0.630414 0
M  V30 1685 C 157.956 -1.9549 0.0655657 0
M  V30 1686 C 158.336 -1.5724 -1.40851 0
M  V30 1687 O 157.684 -0.846116 -2.12257 0
M  V30 1688 C 157.894 -3.47812 0.287691 0
M  V30 1689 C 159.242 -4.24216 0.180513 0
M  V30 1690 O 160.266 -3.55526 0.219019 0
M  V30 1691 O 159.125 -5.46434 0.0848493 0
M  V30 1692 H 156.219 -0.826688 -0.0227177 0
M  V30 1693 H 158.765 -1.54496 0.702068 0
M  V30 1694 H 157.537 -3.687 1.31056 0
M  V30 1695 H 157.16 -3.95751 -0.382984 0
M  V30 1696 N 158.157 -0.370918 -1.53173 0
M  V30 1697 C 159.105 0.488101 -2.27421 0
M  V30 1698 C 160.099 1.07884 -1.30604 0
M  V30 1699 O 161.305 1.02143 -1.48212 0
M  V30 1700 H 157.68 0.176134 -0.731082 0
M  V30 1701 H 159.651 -0.159815 -2.97972 0
M  V30 1702 C 158.4 1.61306 -3.08019 0
M  V30 1703 H 157.723 1.1678 -3.82364 0
M  V30 1704 H 159.163 2.18872 -3.63141 0
M  V30 1705 C 157.622 2.55848 -2.19188 0
M  V30 1706 O 158.152 3.58799 -1.80626 0
M  V30 1707 N 156.358 2.2516 -1.83715 0
M  V30 1708 H 155.905 1.41476 -2.15273 0
M  V30 1709 H 155.863 2.8867 -1.24567 0
M  V30 1710 N 159.635 1.57281 -0.100228 0
M  V30 1711 C 160.598 2.13158 0.842398 0
M  V30 1712 C 161.598 1.06202 1.20738 0
M  V30 1713 O 162.788 1.32066 1.13597 0
M  V30 1714 C 159.92 2.65639 2.13655 0
M  V30 1715 H 161.113 2.97766 0.357114 0
M  V30 1716 H 158.666 1.5559 0.148823 0
M  V30 1717 H 159.401 1.84566 2.66657 0
M  V30 1718 H 159.186 3.43844 1.88451 0
M  V30 1719 H 160.676 3.08846 2.81077 0
M  V30 1720 N 161.113 -0.173488 1.56642 0
M  V30 1721 C 162.061 -1.23417 1.97157 0
M  V30 1722 C 163.055 -1.45946 0.860013 0
M  V30 1723 O 164.261 -1.46551 1.04512 0
M  V30 1724 H 160.636 -0.414818 0.62724 0
M  V30 1725 H 162.607 -0.865582 2.8557 0
M  V30 1726 C 161.356 -2.5665 2.34576 0
M  V30 1727 H 160.679 -2.40137 3.19647 0
M  V30 1728 H 162.119 -3.2956 2.6677 0
M  V30 1729 C 160.578 -3.15245 1.18836 0
M  V30 1730 O 161.108 -3.98883 0.474869 0
M  V30 1731 N 159.314 -2.74303 0.959497 0
M  V30 1732 H 158.861 -2.0639 1.54146 0
M  V30 1733 H 158.819 -3.13844 0.186932 0
M  V30 1734 N 162.591 -1.51276 -0.441967 0
M  V30 1735 C 164.007 -1.39349 -0.778083 0
M  V30 1736 C 164.207 -0.472212 -1.95889 0
M  V30 1737 O 163.263 0.0743551 -2.5239 0
M  V30 1738 C 164.576 -2.81292 -1.0628 0
M  V30 1739 C 166.124 -2.9041 -1.16751 0
M  V30 1740 C 166.599 -4.33251 -1.48519 0
M  V30 1741 N 168.09 -4.36336 -1.55453 0
M  V30 1742 C 168.825 -5.43885 -1.81596 0
M  V30 1743 N 168.321 -6.61601 -2.05562 0
M  V30 1744 N 170.114 -5.3136 -1.8334 0
M  V30 1745 H 162.265 -2.09729 0.335774 0
M  V30 1746 H 164.528 -0.943925 0.0878028 0
M  V30 1747 H 164.234 -3.50678 -0.267905 0
M  V30 1748 H 164.108 -3.20334 -1.99163 0
M  V30 1749 H 166.495 -2.21225 -1.95304 0
M  V30 1750 H 166.576 -2.54871 -0.217801 0
M  V30 1751 H 166.22 -5.02984 -0.704958 0
M  V30 1752 H 166.15 -4.66299 -2.44689 0
M  V30 1753 H 168.641 -3.51466 -1.38853 0
M  V30 1754 H 168.954 -7.39361 -2.24867 0
M  V30 1755 H 167.299 -6.64725 -2.02894 0
M  V30 1756 H 170.49 -4.38382 -1.64132 0
M  V30 1757 H 170.663 -6.15258 -2.03377 0
M  V30 1758 N 164.069 0.697108 -1.41344 0
M  V30 1759 C 165.318 1.45279 -1.39918 0
M  V30 1760 C 165.631 1.95597 -0.0109624 0
M  V30 1761 O 166.837 2.71208 0.125919 0
M  V30 1762 C 165.293 2.62695 -2.46007 0
M  V30 1763 C 164.901 2.19169 -3.90729 0
M  V30 1764 C 166.645 3.40336 -2.53715 0
M  V30 1765 C 164.552 3.33535 -4.88373 0
M  V30 1766 H 163.482 0.545692 -0.520323 0
M  V30 1767 H 166.133 0.756929 -1.67161 0
M  V30 1768 H 164.515 3.34541 -2.11892 0
M  V30 1769 H 165.689 1.54623 -4.34083 0
M  V30 1770 H 164.004 1.54525 -3.86666 0
M  V30 1771 H 166.601 4.2547 -3.2385 0
M  V30 1772 H 166.944 3.85418 -1.5735 0
M  V30 1773 H 167.477 2.75546 -2.86913 0
M  V30 1774 H 164.216 2.93468 -5.86137 0
M  V30 1775 H 163.736 3.96936 -4.49668 0
M  V30 1776 H 165.415 3.99335 -5.09059 0
M  V30 1777 N 165.547 1.27147 0.931209 0
M  V30 1778 C 166.796 1.12664 1.67302 0
M  V30 1779 C 167.109 -0.327718 1.92835 0
M  V30 1780 O 168.315 -0.593392 2.64936 0
M  V30 1781 C 166.771 1.9683 3.01307 0
M  V30 1782 C 166.379 3.46901 2.83485 0
M  V30 1783 C 168.123 1.90985 3.79111 0
M  V30 1784 C 166.03 4.23279 4.13024 0
M  V30 1785 H 164.96 0.41803 0.627509 0
M  V30 1786 H 167.611 1.51539 1.03481 0
M  V30 1787 H 165.993 1.50797 3.66164 0
M  V30 1788 H 167.167 4.00773 2.27415 0
M  V30 1789 H 165.482 3.54088 2.19113 0
M  V30 1790 H 168.079 2.45328 4.75098 0
M  V30 1791 H 168.422 0.882718 4.06834 0
M  V30 1792 H 168.955 2.34895 3.21044 0
M  V30 1793 H 165.694 5.26503 3.90481 0
M  V30 1794 H 165.214 3.74186 4.6877 0
M  V30 1795 H 166.893 4.32265 4.81411 0
M  V30 1796 N 167.025 -1.13721 1.09112 0
M  V30 1797 C 167.972 -2.19031 0.727591 0
M  V30 1798 C 168.942 -1.63555 -0.289656 0
M  V30 1799 O 170.127 -1.90023 -0.172026 0
M  V30 1800 C 167.267 -3.4477 0.15082 0
M  V30 1801 C 166.38 -4.14365 1.22172 0
M  V30 1802 C 165.515 -5.27709 0.608042 0
M  V30 1803 C 164.554 -5.89147 1.66047 0
M  V30 1804 N 163.691 -6.93929 1.06806 0
M  V30 1805 H 168.531 -2.49475 1.62991 0
M  V30 1806 H 166.068 -1.22499 0.81439 0
M  V30 1807 H 168.026 -4.16714 -0.201358 0
M  V30 1808 H 166.656 -3.14787 -0.714783 0
M  V30 1809 H 165.708 -3.40737 1.69122 0
M  V30 1810 H 167.02 -4.56114 2.01895 0
M  V30 1811 H 166.174 -6.06355 0.204523 0
M  V30 1812 H 164.913 -4.872 -0.220769 0
M  V30 1813 H 163.918 -5.09198 2.07357 0
M  V30 1814 H 165.143 -6.31729 2.49189 0
M  V30 1815 H 163.089 -6.55483 0.260476 0
M  V30 1816 H 163.006 -7.34202 1.8023 0
M  V30 1817 H 164.274 -7.76434 0.690644 0
M  V30 1818 N 168.503 -0.877838 -1.30888 0
M  V30 1819 C 169.731 -0.507414 -2.00581 0
M  V30 1820 C 170.146 0.902216 -1.65848 0
M  V30 1821 O 169.503 1.59225 -0.891831 0
M  V30 1822 C 169.554 -0.664162 -3.55347 0
M  V30 1823 O 169.275 -2.01829 -3.8884 0
M  V30 1824 C 170.776 -0.295787 -4.42312 0
M  V30 1825 H 167.996 -0.196866 -0.641471 0
M  V30 1826 H 170.54 -1.18117 -1.66939 0
M  V30 1827 H 168.695 -0.0378619 -3.87381 0
M  V30 1828 H 169.109 -2.03174 -4.8355 0
M  V30 1829 H 170.583 -0.456388 -5.5011 0
M  V30 1830 H 171.06 0.765663 -4.32475 0
M  V30 1831 H 171.666 -0.898113 -4.15709 0
M  V30 1832 N 169.982 1.44106 -0.638065 0
M  V30 1833 C 171.21 2.06336 -0.152615 0
M  V30 1834 C 171.625 1.47731 1.17563 0
M  V30 1835 O 170.982 0.602806 1.72257 0
M  V30 1836 C 171.033 3.61479 -0.0391491 0
M  V30 1837 O 170.754 4.17903 -1.31487 0
M  V30 1838 C 172.255 4.40757 0.474176 0
M  V30 1839 H 169.475 0.665862 -0.0828776 0
M  V30 1840 H 172.019 1.84862 -0.87443 0
M  V30 1841 H 170.174 3.82191 0.633142 0
M  V30 1842 H 170.588 5.11416 -1.16421 0
M  V30 1843 H 172.062 5.49707 0.502562 0
M  V30 1844 H 172.539 4.12697 1.50258 0
M  V30 1845 H 173.145 4.24979 -0.165102 0
M  V30 1846 N 171.46 0.379036 1.52974 0
M  V30 1847 C 172.39 -0.452706 2.29069 0
M  V30 1848 C 173.371 -1.07237 1.32039 0
M  V30 1849 O 174.556 -1.08708 1.60923 0
M  V30 1850 C 171.686 -1.5856 3.08992 0
M  V30 1851 C 170.64 -1.0925 4.13822 0
M  V30 1852 C 169.966 -2.31668 4.81907 0
M  V30 1853 C 171.266 -0.167702 5.22031 0
M  V30 1854 H 172.96 0.182181 2.98845 0
M  V30 1855 H 170.506 0.0890592 1.43724 0
M  V30 1856 H 172.459 -2.1742 3.6098 0
M  V30 1857 H 171.183 -2.24792 2.36931 0
M  V30 1858 H 169.842 -0.526494 3.628 0
M  V30 1859 H 169.49 -2.96386 4.06404 0
M  V30 1860 H 169.19 -1.9934 5.52754 0
M  V30 1861 H 170.714 -2.91189 5.36695 0
M  V30 1862 H 172.128 -0.664186 5.6944 0
M  V30 1863 H 170.525 0.0653265 6.00064 0
M  V30 1864 H 171.595 0.786347 4.78482 0
M  V30 1865 N 172.938 -1.57226 0.108567 0
M  V30 1866 C 173.87 -2.11809 -0.875752 0
M  V30 1867 C 174.883 -1.05839 -1.23701 0
M  V30 1868 O 176.072 -1.33245 -1.18778 0
M  V30 1869 C 173.172 -2.59411 -2.18081 0
M  V30 1870 C 172.345 -3.89364 -1.99284 0
M  V30 1871 C 171.404 -4.22672 -3.13424 0
M  V30 1872 O 170.43 -4.91668 -2.86795 0
M  V30 1873 N 171.632 -3.79154 -4.3957 0
M  V30 1874 H 174.397 -2.9689 -0.409477 0
M  V30 1875 H 171.958 -1.61721 -0.076158 0
M  V30 1876 H 173.95 -2.7873 -2.93414 0
M  V30 1877 H 172.52 -1.79268 -2.5609 0
M  V30 1878 H 171.74 -3.79059 -1.08203 0
M  V30 1879 H 173.028 -4.74358 -1.84017 0
M  V30 1880 H 172.426 -3.23486 -4.64083 0
M  V30 1881 H 170.983 -4.03602 -5.11809 0
M  V30 1882 N 174.416 0.165178 -1.56732 0
M  V30 1883 C 175.348 1.22911 -1.93457 0
M  V30 1884 C 176.361 1.40152 -0.828333 0
M  V30 1885 O 177.55 1.40046 -1.10677 0
M  V30 1886 C 174.65 2.59686 -2.17753 0
M  V30 1887 C 173.823 2.63663 -3.48999 0
M  V30 1888 C 172.882 3.81845 -3.62051 0
M  V30 1889 O 171.908 3.67559 -4.34613 0
M  V30 1890 N 173.11 4.98557 -2.97357 0
M  V30 1891 H 175.875 0.917118 -2.85323 0
M  V30 1892 H 173.436 0.354895 -1.57962 0
M  V30 1893 H 175.428 3.37225 -2.23743 0
M  V30 1894 H 173.998 2.83251 -1.32242 0
M  V30 1895 H 173.218 1.72173 -3.54612 0
M  V30 1896 H 174.506 2.63336 -4.35352 0
M  V30 1897 H 173.904 5.13065 -2.38287 0
M  V30 1898 H 172.461 5.73936 -3.08934 0
M  V30 1899 N 175.894 1.51508 0.433938 0
M  V30 1900 C 176.804 1.75917 1.5521 0
M  V30 1901 C 177.82 0.643545 1.61662 0
M  V30 1902 O 178.996 0.926183 1.7884 0
M  V30 1903 C 176.061 1.88213 2.91164 0
M  V30 1904 C 175.122 3.12074 2.94802 0
M  V30 1905 C 174.355 3.23774 4.24271 0
M  V30 1906 O 174.578 2.4133 5.16833 0
M  V30 1907 O 173.512 4.16774 4.34262 0
M  V30 1908 H 177.338 2.70777 1.37527 0
M  V30 1909 H 174.923 1.36051 0.617293 0
M  V30 1910 H 176.805 1.98267 3.71845 0
M  V30 1911 H 175.48 0.965413 3.08968 0
M  V30 1912 H 174.387 3.07497 2.13065 0
M  V30 1913 H 175.72 4.03446 2.81943 0
M  V30 1914 N 177.372 -0.689602 1.41712 0
M  V30 1915 C 178.319 -1.80345 1.44029 0
M  V30 1916 C 179.289 -1.63478 0.293948 0
M  V30 1917 O 180.474 -1.84244 0.495869 0
M  V30 1918 C 177.614 -3.18272 1.33405 0
M  V30 1919 C 176.727 -3.46529 2.57956 0
M  V30 1920 C 175.862 -4.74103 2.39582 0
M  V30 1921 C 174.901 -4.95347 3.5958 0
M  V30 1922 N 174.038 -6.14151 3.40239 0
M  V30 1923 H 178.878 -1.77698 2.39222 0
M  V30 1924 H 176.415 -0.867688 1.18784 0
M  V30 1925 H 178.373 -3.97956 1.25246 0
M  V30 1926 H 177.003 -3.2008 0.418164 0
M  V30 1927 H 176.055 -2.61207 2.76542 0
M  V30 1928 H 177.367 -3.58126 3.47199 0
M  V30 1929 H 176.521 -5.61853 2.28924 0
M  V30 1930 H 175.26 -4.64763 1.47805 0
M  V30 1931 H 174.265 -4.06044 3.70686 0
M  V30 1932 H 175.49 -5.06542 4.52318 0
M  V30 1933 H 173.436 -6.06013 2.51167 0
M  V30 1934 H 173.353 -6.26543 4.23061 0
M  V30 1935 H 174.621 -7.04619 3.33365 0
M  V30 1936 N 178.85 -1.27639 -0.924453 0
M  V30 1937 C 180.261 -1.12834 -1.48746 0
M  V30 1938 C 180.612 0.285505 -1.94112 0
M  V30 1939 O 179.737 1.17874 -1.81479 0
M  V30 1940 C 180.332 -2.04217 -2.70334 0
M  V30 1941 C 178.891 -1.93509 -3.22848 0
M  V30 1942 C 178.038 -1.96583 -1.95577 0
M  V30 1943 H 180.989 -1.40484 -0.738233 0
M  V30 1944 H 181.01 -1.59989 -3.4523 0
M  V30 1945 H 180.522 -3.07111 -2.37285 0
M  V30 1946 H 178.623 -0.936131 -3.60649 0
M  V30 1947 H 178.736 -2.79917 -3.88823 0
M  V30 1948 H 177.1 -1.4085 -2.12211 0
M  V30 1949 H 177.883 -3.01137 -1.64837 0
M  V30 1950 N 180.328 1.1314 -1.09713 0
M  V30 1951 C 181.605 1.80762 -0.747302 0
M  V30 1952 C 181.985 1.96663 0.767265 0
M  V30 1953 O 181.333 1.53706 1.69076 0
M  V30 1954 C 181.543 3.15606 -1.48975 0
M  V30 1955 C 182.891 3.90914 -1.65746 0
M  V30 1956 O 183.915 3.25239 -1.45251 0
M  V30 1957 O 182.774 5.08718 -1.9967 0
M  V30 1958 H 179.868 0.782103 -0.268782 0
M  V30 1959 H 182.414 1.20041 -1.19951 0
M  V30 1960 H 181.186 2.99278 -2.52088 0
M  V30 1961 H 180.809 3.84029 -1.02991 0
M  V30 1962 N 181.806 0.884767 1.30421 0
M  V30 1963 C 183.053 0.503105 1.96151 0
M  V30 1964 C 183.381 -0.947676 1.69851 0
M  V30 1965 O 182.636 -1.68467 0.995861 0
M  V30 1966 C 182.935 0.724318 3.49983 0
M  V30 1967 C 182.601 2.15015 3.96332 0
M  V30 1968 C 181.263 2.54005 4.08699 0
M  V30 1969 C 183.615 3.07936 4.20505 0
M  V30 1970 C 180.943 3.85128 4.42599 0
M  V30 1971 C 183.295 4.3859 4.55874 0
M  V30 1972 C 181.959 4.77474 4.66449 0
M  V30 1973 H 181.229 0.184099 0.717766 0
M  V30 1974 H 183.876 1.12058 1.55291 0
M  V30 1975 H 182.181 0.0238086 3.91793 0
M  V30 1976 H 183.878 0.408617 3.98913 0
M  V30 1977 H 180.468 1.8375 3.87213 0
M  V30 1978 H 184.652 2.79033 4.10431 0
M  V30 1979 H 179.908 4.14996 4.48986 0
M  V30 1980 H 184.082 5.10629 4.7353 0
M  V30 1981 H 181.709 5.79115 4.92473 0
M  V30 1982 N 183.284 -1.43765 0.645699 0
M  V30 1983 C 184.524 -2.03776 0.159542 0
M  V30 1984 C 184.888 -1.49792 -1.2011 0
M  V30 1985 O 186.089 -2.01398 -1.78023 0
M  V30 1986 C 184.36 -3.57036 0.161251 0
M  V30 1987 S 185.919 -4.3804 -0.258159 0
M  V30 1988 H 182.737 -0.707717 0.0682454 0
M  V30 1989 H 185.339 -1.75941 0.852352 0
M  V30 1990 H 184.043 -3.9383 1.15439 0
M  V30 1991 H 183.574 -3.89503 -0.552339 0
M  V30 1992 H 185.589 -4.7302 -1.49889 0
M  V30 1993 N 184.763 -0.387143 -1.52771 0
M  V30 1994 C 186.01 0.195735 -2.01552 0
M  V30 1995 C 186.338 1.46995 -1.27369 0
M  V30 1996 O 185.593 1.92325 -0.361879 0
M  V30 1997 C 185.892 0.512209 -3.53711 0
M  V30 1998 C 185.558 -0.670202 -4.45891 0
M  V30 1999 C 184.22 -0.994586 -4.70809 0
M  V30 2000 C 186.572 -1.46134 -5.00294 0
M  V30 2001 C 183.9 -2.11169 -5.4738 0
M  V30 2002 C 186.252 -2.56903 -5.78086 0
M  V30 2003 C 184.916 -2.89852 -6.01284 0
M  V30 2004 H 184.186 0.0716246 -0.73753 0
M  V30 2005 H 186.833 -0.524046 -1.8419 0
M  V30 2006 H 185.138 1.31329 -3.69134 0
M  V30 2007 H 186.835 0.975804 -3.88946 0
M  V30 2008 H 183.425 -0.407366 -4.2666 0
M  V30 2009 H 187.609 -1.22397 -4.80971 0
M  V30 2010 H 182.865 -2.3707 -5.63567 0
M  V30 2011 H 187.039 -3.18608 -6.19243 0
M  V30 2012 H 184.666 -3.76533 -6.60399 0
M  V30 2013 N 186.241 1.57166 -0.116904 0
M  V30 2014 C 187.171 2.18222 0.830759 0
M  V30 2015 C 188.152 1.12167 1.27877 0
M  V30 2016 O 189.337 1.40394 1.34176 0
M  V30 2017 C 186.467 2.77996 2.08172 0
M  V30 2018 C 185.421 3.89614 1.77157 0
M  V30 2019 C 184.747 4.36187 3.09265 0
M  V30 2020 C 186.047 5.1181 1.04151 0
M  V30 2021 H 187.741 2.97664 0.321992 0
M  V30 2022 H 185.287 1.4318 0.153434 0
M  V30 2023 H 187.24 3.19366 2.74924 0
M  V30 2024 H 185.964 1.9584 2.6137 0
M  V30 2025 H 184.623 3.48816 1.12796 0
M  V30 2026 H 184.271 3.50893 3.60393 0
M  V30 2027 H 183.971 5.11455 2.89288 0
M  V30 2028 H 185.495 4.80207 3.77139 0
M  V30 2029 H 186.909 5.50214 1.61052 0
M  V30 2030 H 185.306 5.92648 0.942762 0
M  V30 2031 H 186.376 4.84892 0.0279022 0
M  V30 2032 N 187.719 -0.156864 1.56817 0
M  V30 2033 C 188.629 -1.2136 2.00771 0
M  V30 2034 C 189.645 -1.47598 0.921459 0
M  V30 2035 O 190.821 -1.59462 1.2302 0
M  V30 2036 C 187.886 -2.52943 2.37109 0
M  V30 2037 C 186.947 -2.34439 3.59634 0
M  V30 2038 C 186.18 -3.59748 3.94229 0
M  V30 2039 O 186.403 -4.65526 3.29609 0
M  V30 2040 O 185.337 -3.52998 4.8752 0
M  V30 2041 H 189.163 -0.870468 2.90958 0
M  V30 2042 H 186.748 -0.36484 1.44877 0
M  V30 2043 H 188.63 -3.30538 2.61386 0
M  V30 2044 H 187.305 -2.86806 1.5008 0
M  V30 2045 H 186.212 -1.54828 3.40557 0
M  V30 2046 H 187.545 -2.05496 4.4725 0
M  V30 2047 N 189.197 -1.51736 -0.425897 0
M  V30 2048 C 190.107 -1.76738 -1.54275 0
M  V30 2049 C 191.123 -0.65211 -1.61318 0
M  V30 2050 O 192.299 -0.935654 -1.78346 0
M  V30 2051 C 189.364 -1.89755 -2.90162 0
M  V30 2052 C 188.425 -3.13633 -2.93143 0
M  V30 2053 C 187.658 -3.2602 -4.22548 0
M  V30 2054 O 187.881 -2.44067 -5.15546 0
M  V30 2055 O 186.815 -4.19071 -4.32046 0
M  V30 2056 H 190.641 -2.71502 -1.36089 0
M  V30 2057 H 188.226 -1.36376 -0.610069 0
M  V30 2058 H 190.108 -2.00236 -3.70788 0
M  V30 2059 H 188.783 -0.981785 -3.08452 0
M  V30 2060 H 187.69 -3.08622 -2.11431 0
M  V30 2061 H 189.023 -4.04936 -2.798 0
M  V30 2062 N 190.675 0.682077 -1.42076 0
M  V30 2063 C 191.952 1.43755 -1.32642 0
M  V30 2064 C 192.332 2.11063 0.0396611 0
M  V30 2065 O 191.68 2.02701 1.05474 0
M  V30 2066 C 191.89 2.44596 -2.48946 0
M  V30 2067 C 193.238 3.09454 -2.9073 0
M  V30 2068 O 194.262 2.54922 -2.48783 0
M  V30 2069 O 193.121 4.08253 -3.63307 0
M  V30 2070 H 190.215 0.640857 -0.522715 0
M  V30 2071 H 192.761 0.711415 -1.54068 0
M  V30 2072 H 191.533 1.93609 -3.40046 0
M  V30 2073 H 191.156 3.24701 -2.29467 0
M  V30 2074 N 192.153 1.28127 0.917671 0
M  V30 2075 C 193.564 1.13622 1.48145 0
M  V30 2076 C 193.915 -0.275207 1.9426 0
M  V30 2077 O 193.04 -1.1691 1.82102 0
M  V30 2078 C 193.635 2.05648 2.69248 0
M  V30 2079 C 192.194 1.95219 3.21818 0
M  V30 2080 C 191.341 1.97618 1.94532 0
M  V30 2081 H 194.292 1.40874 0.730772 0
M  V30 2082 H 194.313 1.61818 3.44377 0
M  V30 2083 H 193.825 3.08365 2.35653 0
M  V30 2084 H 191.926 0.955244 3.60147 0
M  V30 2085 H 192.039 2.81976 3.87333 0
M  V30 2086 H 190.403 1.41973 2.11461 0
M  V30 2087 H 191.186 3.02007 1.63238 0
M  V30 2088 N 193.631 -1.12557 1.10312 0
M  V30 2089 C 194.879 -1.83675 0.843091 0
M  V30 2090 C 195.2 -1.84435 -0.633131 0
M  V30 2091 O 194.47 -1.30657 -1.45964 0
M  V30 2092 H 193.05 -0.680138 0.308904 0
M  V30 2093 H 195.712 -1.36301 1.39313 0
M  V30 2094 H 194.808 -2.87908 1.2048 0
M  V30 2095 N 195.109 -0.891671 -1.2995 0
M  V30 2096 C 196.358 -0.509521 -1.95158 0
M  V30 2097 C 196.671 0.947388 -1.71125 0
M  V30 2098 O 197.877 1.43669 -2.30372 0
M  V30 2099 C 196.333 -0.860315 -3.49466 0
M  V30 2100 C 195.941 -2.33545 -3.8231 0
M  V30 2101 C 197.685 -0.547687 -4.20952 0
M  V30 2102 C 195.592 -2.62752 -5.29826 0
M  V30 2103 H 194.522 -0.18682 -0.730489 0
M  V30 2104 H 197.173 -1.08756 -1.47798 0
M  V30 2105 H 195.555 -0.211285 -3.95436 0
M  V30 2106 H 196.729 -3.02936 -3.47227 0
M  V30 2107 H 195.044 -2.61629 -3.23944 0
M  V30 2108 H 197.641 -0.742854 -5.29515 0
M  V30 2109 H 197.984 0.51332 -4.13123 0
M  V30 2110 H 198.517 -1.1542 -3.80688 0
M  V30 2111 H 195.256 -3.6762 -5.42712 0
M  V30 2112 H 194.776 -1.97977 -5.66185 0
M  V30 2113 H 196.455 -2.48601 -5.97333 0
M  V30 2114 N 196.587 1.43421 -0.653314 0
M  V30 2115 C 197.827 2.03689 -0.170346 0
M  V30 2116 C 198.191 1.50427 1.19314 0
M  V30 2117 O 199.392 2.0234 1.76952 0
M  V30 2118 C 197.663 3.56946 -0.180183 0
M  V30 2119 S 199.222 4.38171 0.234925 0
M  V30 2120 H 196.04 0.707345 -0.0719976 0
M  V30 2121 H 198.642 1.75486 -0.86167 0
M  V30 2122 H 197.346 3.93212 -1.17526 0
M  V30 2123 H 196.877 3.89791 0.531675 0
M  V30 2124 H 198.892 4.73808 1.47378 0
M  V30 2125 N 198.065 0.39524 1.52563 0
M  V30 2126 C 199.481 0.0454682 1.59535 0
M  V30 2127 C 199.681 -1.44056 1.4089 0
M  V30 2128 O 198.737 -2.20579 1.22888 0
M  V30 2129 C 200.05 0.527963 2.96029 0
M  V30 2130 C 201.598 0.484733 3.09224 0
M  V30 2131 C 202.073 0.943512 4.48176 0
M  V30 2132 N 203.564 0.899765 4.54377 0
M  V30 2133 C 204.299 1.22609 5.60138 0
M  V30 2134 N 203.795 1.62319 6.73516 0
M  V30 2135 N 205.588 1.14696 5.50274 0
M  V30 2136 H 197.739 1.36261 1.62931 0
M  V30 2137 H 200.002 0.558887 0.765735 0
M  V30 2138 H 199.708 1.56607 3.14908 0
M  V30 2139 H 199.582 -0.0698056 3.77135 0
M  V30 2140 H 201.969 -0.544298 2.90037 0
M  V30 2141 H 202.05 1.11838 2.30056 0
M  V30 2142 H 201.694 1.9708 4.68104 0
M  V30 2143 H 201.624 0.286817 5.25818 0
M  V30 2144 H 204.115 0.607632 3.72983 0
M  V30 2145 H 204.428 1.85567 7.5019 0
M  V30 2146 H 202.773 1.66211 6.74833 0
M  V30 2147 H 205.964 0.835701 4.6058 0
M  V30 2148 H 206.137 1.40459 6.32594 0
M  V30 2149 N 199.544 -1.57102 0.125237 0
M  V30 2150 C 200.792 -1.95021 -0.530198 0
M  V30 2151 C 201.113 -1.00982 -1.66816 0
M  V30 2152 O 200.383 -0.0672693 -1.95784 0
M  V30 2153 H 198.963 -0.720046 -0.198853 0
M  V30 2154 H 201.625 -1.93916 0.19564 0
M  V30 2155 H 200.721 -2.98211 -0.920681 0
M  V30 2156 N 201.022 0.148545 -1.56898 0
M  V30 2157 C 202.252 0.875118 -1.8715 0
M  V30 2158 C 202.66 1.75322 -0.711262 0
M  V30 2159 O 202.003 1.80745 0.328151 0
M  V30 2160 C 202.065 1.7844 -3.12089 0
M  V30 2161 C 201.729 1.08361 -4.43967 0
M  V30 2162 C 202.726 0.438247 -5.1805 0
M  V30 2163 C 200.411 1.07358 -4.90693 0
M  V30 2164 C 202.405 -0.20779 -6.37061 0
M  V30 2165 C 200.092 0.42373 -6.09629 0
M  V30 2166 C 201.09 -0.215829 -6.82659 0
M  V30 2167 O 200.778 -0.855378 -7.99336 0
M  V30 2168 H 200.51 0.258504 -0.624621 0
M  V30 2169 H 203.064 0.14652 -2.04877 0
M  V30 2170 H 201.294 2.55389 -2.90367 0
M  V30 2171 H 202.983 2.38279 -3.286 0
M  V30 2172 H 203.749 0.437817 -4.8302 0
M  V30 2173 H 199.628 1.5608 -4.33774 0
M  V30 2174 H 203.172 -0.70758 -6.94002 0
M  V30 2175 H 199.069 0.421822 -6.4412 0
M  V30 2176 H 199.837 -0.756892 -8.14993 0
M  V30 2177 N 202.5 1.5196 0.417844 0
M  V30 2178 C 203.749 1.6482 1.16264 0
M  V30 2179 C 204.062 0.379886 1.91876 0
M  V30 2180 O 205.268 0.388154 2.68711 0
M  V30 2181 C 203.724 2.91161 2.1155 0
M  V30 2182 C 203.332 4.25068 1.41495 0
M  V30 2183 C 205.076 3.13383 2.86341 0
M  V30 2184 C 202.983 5.42541 2.35379 0
M  V30 2185 H 201.913 0.613954 0.437694 0
M  V30 2186 H 204.564 1.78442 0.427871 0
M  V30 2187 H 202.946 2.71218 2.88543 0
M  V30 2188 H 204.12 4.55463 0.699263 0
M  V30 2189 H 202.435 4.0888 0.787792 0
M  V30 2190 H 205.032 3.98324 3.5671 0
M  V30 2191 H 205.375 2.27256 3.48798 0
M  V30 2192 H 205.908 3.33757 2.1645 0
M  V30 2193 H 202.647 6.30987 1.77582 0
M  V30 2194 H 202.167 5.16497 3.04945 0
M  V30 2195 H 203.846 5.75272 2.96093 0
M  V30 2196 N 203.978 -0.674533 1.42435 0
M  V30 2197 C 205.206 -1.46283 1.46317 0
M  V30 2198 C 205.621 -1.88653 0.0745836 0
M  V30 2199 O 204.978 -1.58151 -0.91074 0
M  V30 2200 C 205.029 -2.71178 2.3905 0
M  V30 2201 O 204.75 -2.30586 3.72507 0
M  V30 2202 C 206.251 -3.64738 2.51955 0
M  V30 2203 H 203.471 -0.450104 0.497642 0
M  V30 2204 H 206.015 -0.828792 1.86953 0
M  V30 2205 H 204.17 -3.3077 2.01667 0
M  V30 2206 H 204.584 -3.11241 4.22172 0
M  V30 2207 H 206.058 -4.49096 3.20962 0
M  V30 2208 H 206.535 -4.10656 1.55752 0
M  V30 2209 H 207.141 -3.11038 2.90061 0
M  V30 2210 N 205.456 -1.28612 -0.910864 0
M  V30 2211 C 206.872 -1.06381 -1.18976 0
M  V30 2212 C 207.072 0.191998 -2.00583 0
M  V30 2213 O 206.128 0.892869 -2.36187 0
M  V30 2214 C 207.441 -2.31295 -1.92154 0
M  V30 2215 C 208.989 -2.36503 -2.05025 0
M  V30 2216 C 209.464 -3.61191 -2.81612 0
M  V30 2217 N 210.955 -3.61847 -2.89172 0
M  V30 2218 C 211.69 -4.55004 -3.4894 0
M  V30 2219 N 211.186 -5.58482 -4.09963 0
M  V30 2220 N 212.979 -4.42594 -3.46506 0
M  V30 2221 H 205.13 -2.09221 -0.366094 0
M  V30 2222 H 207.393 -0.921003 -0.224629 0
M  V30 2223 H 207.099 -3.228 -1.39618 0
M  V30 2224 H 206.973 -2.37934 -2.9269 0
M  V30 2225 H 209.36 -1.45494 -2.5674 0
M  V30 2226 H 209.441 -2.33857 -1.03657 0
M  V30 2227 H 209.085 -4.52545 -2.30576 0
M  V30 2228 H 209.015 -3.61092 -3.83302 0
M  V30 2229 H 211.506 -2.87022 -2.45819 0
M  V30 2230 H 211.819 -6.25704 -4.53557 0
M  V30 2231 H 210.164 -5.62305 -4.08459 0
M  V30 2232 H 213.355 -3.60953 -2.98045 0
M  V30 2233 H 213.528 -5.15381 -3.92793 0
M  V30 2234 N 206.934 1.1197 -1.10907 0
M  V30 2235 C 208.164 1.8713 -0.875553 0
M  V30 2236 C 208.572 1.8016 0.577843 0
M  V30 2237 O 207.915 1.17699 1.41042 0
M  V30 2238 C 207.977 3.37005 -1.2517 0
M  V30 2239 C 207.641 3.67748 -2.71313 0
M  V30 2240 C 208.638 3.65698 -3.69542 0
M  V30 2241 C 206.323 3.96928 -3.07821 0
M  V30 2242 C 208.317 3.92395 -5.023 0
M  V30 2243 C 206.004 4.23284 -4.40765 0
M  V30 2244 C 207.002 4.21005 -5.37814 0
M  V30 2245 O 206.69 4.46704 -6.68364 0
M  V30 2246 H 206.422 0.598786 -0.313737 0
M  V30 2247 H 208.976 1.42568 -1.47863 0
M  V30 2248 H 207.206 3.82146 -0.591741 0
M  V30 2249 H 208.895 3.93519 -0.994877 0
M  V30 2250 H 209.661 3.43211 -3.42682 0
M  V30 2251 H 205.54 3.97841 -2.32902 0
M  V30 2252 H 209.084 3.90531 -5.78041 0
M  V30 2253 H 204.981 4.45246 -4.67361 0
M  V30 2254 H 205.749 4.64299 -6.74069 0
M  V30 2255 N 208.412 0.89855 1.29475 0
M  V30 2256 C 209.659 0.523882 1.95606 0
M  V30 2257 C 209.987 -0.929608 1.70847 0
M  V30 2258 O 209.242 -1.67401 1.01367 0
M  V30 2259 C 209.541 0.761398 3.49195 0
M  V30 2260 C 209.207 2.19207 3.94029 0
M  V30 2261 C 207.869 2.58326 4.05982 0
M  V30 2262 C 210.221 3.12379 4.17216 0
M  V30 2263 C 207.549 3.898 4.38489 0
M  V30 2264 C 209.901 4.43401 4.51197 0
M  V30 2265 C 208.565 4.82394 4.61359 0
M  V30 2266 H 207.835 0.191702 0.715773 0
M  V30 2267 H 210.482 1.13699 1.54094 0
M  V30 2268 H 208.787 0.0653622 3.91745 0
M  V30 2269 H 210.484 0.450904 3.98457 0
M  V30 2270 H 207.074 1.87846 3.85242 0
M  V30 2271 H 211.258 2.83371 4.07449 0
M  V30 2272 H 206.514 4.19734 4.44559 0
M  V30 2273 H 210.688 5.15623 4.68087 0
M  V30 2274 H 208.315 5.84306 4.86303 0
M  V30 2275 N 209.89 -1.43072 0.660911 0
M  V30 2276 C 211.12 -2.05769 0.185153 0
M  V30 2277 C 211.528 -1.49668 -1.15742 0
M  V30 2278 O 210.871 -0.625649 -1.72717 0
M  V30 2279 C 210.933 -3.59489 0.0278237 0
M  V30 2280 C 210.597 -4.38212 1.2969 0
M  V30 2281 C 211.594 -4.69772 2.22734 0
M  V30 2282 C 209.279 -4.7809 1.54063 0
M  V30 2283 C 211.273 -5.40129 3.38437 0
M  V30 2284 C 208.96 -5.4819 2.70058 0
M  V30 2285 C 209.958 -5.79132 3.62071 0
M  V30 2286 O 209.646 -6.47798 4.76039 0
M  V30 2287 H 209.378 -0.669873 0.0908086 0
M  V30 2288 H 211.932 -1.84436 0.90402 0
M  V30 2289 H 210.162 -3.79426 -0.746489 0
M  V30 2290 H 211.851 -4.03862 -0.406275 0
M  V30 2291 H 212.617 -4.39476 2.05149 0
M  V30 2292 H 208.496 -4.53408 0.833215 0
M  V30 2293 H 212.04 -5.64198 4.10277 0
M  V30 2294 H 207.937 -5.77902 2.87574 0
M  V30 2295 H 208.705 -6.66283 4.75404 0
M  V30 2296 N 211.368 -0.403325 -1.52352 0
M  V30 2297 C 212.316 0.439752 -2.28405 0
M  V30 2298 C 213.31 1.05089 -1.32863 0
M  V30 2299 O 214.516 0.989759 -1.50345 0
M  V30 2300 H 210.891 0.160587 -0.734653 0
M  V30 2301 H 212.862 -0.222983 -2.97566 0
M  V30 2302 C 211.611 1.54736 -3.11371 0
M  V30 2303 H 210.934 1.08643 -3.84755 0
M  V30 2304 H 212.374 2.1112 -3.67701 0
M  V30 2305 C 210.833 2.51141 -2.24566 0
M  V30 2306 O 211.363 3.54887 -1.88196 0
M  V30 2307 N 209.569 2.21213 -1.8845 0
M  V30 2308 H 209.116 1.36878 -2.18225 0
M  V30 2309 H 209.074 2.85963 -1.30662 0
M  V30 2310 N 212.846 1.57033 -0.133567 0
M  V30 2311 C 213.794 2.17348 0.828412 0
M  V30 2312 C 214.788 1.12671 1.26498 0
M  V30 2313 O 215.994 1.30947 1.23502 0
M  V30 2314 H 212.369 0.695775 0.285309 0
M  V30 2315 H 214.34 2.96935 0.295372 0
M  V30 2316 C 213.089 2.79893 2.06289 0
M  V30 2317 H 212.412 3.60147 1.73592 0
M  V30 2318 H 213.852 3.25615 2.71572 0
M  V30 2319 C 212.311 1.77713 2.86216 0
M  V30 2320 O 212.841 1.23937 3.82103 0
M  V30 2321 N 211.047 1.47321 2.50489 0
M  V30 2322 H 210.594 1.91243 1.7258 0
M  V30 2323 H 210.552 0.79199 3.04261 0
M  V30 2324 N 214.325 -0.140222 1.56975 0
M  V30 2325 C 215.257 -1.19818 1.95388 0
M  V30 2326 C 216.27 -1.38816 0.850525 0
M  V30 2327 O 217.459 -1.38267 1.12891 0
M  V30 2328 C 214.559 -2.56189 2.21857 0
M  V30 2329 C 213.732 -2.58077 3.5315 0
M  V30 2330 C 212.791 -3.76037 3.6808 0
M  V30 2331 O 211.817 -3.60598 4.40406 0
M  V30 2332 N 213.019 -4.93763 3.05251 0
M  V30 2333 H 215.784 -0.871609 2.86746 0
M  V30 2334 H 213.345 -0.32972 1.58507 0
M  V30 2335 H 215.337 -3.33623 2.2908 0
M  V30 2336 H 213.907 -2.81111 1.36731 0
M  V30 2337 H 213.127 -1.6651 3.57307 0
M  V30 2338 H 214.415 -2.56377 4.39486 0
M  V30 2339 H 213.813 -5.09209 2.46419 0
M  V30 2340 H 212.37 -5.68949 3.18026 0
M  V30 2341 N 215.803 -1.52179 -0.40978 0
M  V30 2342 C 217.031 -1.70054 -1.17853 0
M  V30 2343 C 217.446 -0.409735 -1.843 0
M  V30 2344 O 216.803 0.614183 -1.71855 0
M  V30 2345 C 216.854 -2.83568 -2.24213 0
M  V30 2346 O 216.575 -4.0765 -1.60478 0
M  V30 2347 C 218.076 -3.12947 -3.13973 0
M  V30 2348 H 215.296 -0.569917 -0.354169 0
M  V30 2349 H 217.84 -1.98734 -0.482198 0
M  V30 2350 H 215.995 -2.57409 -2.89516 0
M  V30 2351 H 216.409 -4.70899 -2.30986 0
M  V30 2352 H 217.883 -3.95889 -3.84677 0
M  V30 2353 H 218.36 -2.26472 -3.76307 0
M  V30 2354 H 218.966 -3.40868 -2.5434 0
M  V30 2355 N 217.281 0.66697 -1.42791 0
M  V30 2356 C 218.228 1.7803 -1.4688 0
M  V30 2357 C 219.198 1.6299 -0.319919 0
M  V30 2358 O 220.383 1.83432 -0.525118 0
M  V30 2359 C 217.523 3.1611 -1.38451 0
M  V30 2360 C 216.636 3.42381 -2.63437 0
M  V30 2361 C 215.771 4.70232 -2.47094 0
M  V30 2362 C 214.81 4.89564 -3.67415 0
M  V30 2363 N 213.947 6.08661 -3.49966 0
M  V30 2364 H 218.787 1.7387 -2.42019 0
M  V30 2365 H 216.324 0.84868 -1.20149 0
M  V30 2366 H 218.282 3.95914 -1.31561 0
M  V30 2367 H 216.912 3.19374 -0.469033 0
M  V30 2368 H 215.964 2.56774 -2.80662 0
M  V30 2369 H 217.276 3.52557 -3.52853 0
M  V30 2370 H 216.43 5.5814 -2.37834 0
M  V30 2371 H 215.169 4.62353 -1.5518 0
M  V30 2372 H 214.174 4.00096 -3.77099 0
M  V30 2373 H 215.399 4.99282 -4.6032 0
M  V30 2374 H 213.345 6.0194 -2.60776 0
M  V30 2375 H 213.262 6.19733 -4.32975 0
M  V30 2376 H 214.53 6.99226 -3.44532 0
M  V30 2377 N 218.759 1.29093 0.90403 0
M  V30 2378 C 219.691 1.09658 2.01266 0
M  V30 2379 C 220.704 0.0453729 1.62737 0
M  V30 2380 O 221.893 0.289446 1.76138 0
M  V30 2381 C 218.993 0.646278 3.32681 0
M  V30 2382 C 218.166 1.77505 3.99763 0
M  V30 2383 C 217.225 1.31649 5.09465 0
M  V30 2384 O 216.251 2.02045 5.32134 0
M  V30 2385 N 217.453 0.184997 5.80205 0
M  V30 2386 H 220.218 2.05135 2.18494 0
M  V30 2387 H 217.779 1.20975 1.07594 0
M  V30 2388 H 219.771 0.322906 4.0341 0
M  V30 2389 H 218.341 -0.215916 3.11853 0
M  V30 2390 H 217.561 2.26752 3.22455 0
M  V30 2391 H 218.849 2.53198 4.41325 0
M  V30 2392 H 218.247 -0.402021 5.6427 0
M  V30 2393 H 216.804 -0.0790358 6.51752 0
M  V30 2394 N 220.237 -1.11381 1.11499 0
M  V30 2395 C 221.477 -1.84763 0.874188 0
M  V30 2396 C 221.841 -1.82726 -0.589496 0
M  V30 2397 O 223.042 -2.51562 -0.947089 0
M  V30 2398 C 221.313 -3.27931 1.42112 0
M  V30 2399 S 222.872 -4.18557 1.31739 0
M  V30 2400 H 219.69 -0.637115 0.315603 0
M  V30 2401 H 222.292 -1.34097 1.42261 0
M  V30 2402 H 220.996 -3.26978 2.48019 0
M  V30 2403 H 220.527 -3.83665 0.869761 0
M  V30 2404 H 222.542 -4.95396 0.282335 0
M  V30 2405 N 221.715 -0.905404 -1.28997 0
M  V30 2406 C 222.625 -0.392246 -2.31298 0
M  V30 2407 C 223.641 0.515889 -1.66176 0
M  V30 2408 O 224.817 0.404093 -1.97304 0
M  V30 2409 C 221.882 0.36686 -3.44754 0
M  V30 2410 C 220.943 -0.573485 -4.25452 0
M  V30 2411 C 220.176 0.149488 -5.33491 0
M  V30 2412 O 220.399 1.37255 -5.5364 0
M  V30 2413 O 219.333 -0.510919 -5.99728 0
M  V30 2414 H 223.159 -1.2411 -2.77183 0
M  V30 2415 H 220.744 -0.669926 -1.33538 0
M  V30 2416 H 222.626 0.795907 -4.13816 0
M  V30 2417 H 221.301 1.19169 -3.00966 0
M  V30 2418 H 220.208 -1.05176 -3.59011 0
M  V30 2419 H 221.541 -1.36489 -4.72897 0
M  V30 2420 N 223.193 1.4272 -0.668489 0
M  V30 2421 C 224.609 1.55992 -0.33745 0
M  V30 2422 C 224.809 1.64933 1.15756 0
M  V30 2423 O 223.865 1.61278 1.94282 0
M  V30 2424 C 225.178 2.81314 -1.06222 0
M  V30 2425 C 226.726 2.95078 -1.04394 0
M  V30 2426 C 227.201 4.23252 -1.74991 0
M  V30 2427 N 228.692 4.3015 -1.71829 0
M  V30 2428 C 229.427 5.28127 -2.23315 0
M  V30 2429 N 228.923 6.32293 -2.83156 0
M  V30 2430 N 230.716 5.19882 -2.13726 0
M  V30 2431 H 222.867 1.3516 -1.63846 0
M  V30 2432 H 225.13 0.650174 -0.689912 0
M  V30 2433 H 224.836 2.80823 -2.11734 0
M  V30 2434 H 224.71 3.72012 -0.62344 0
M  V30 2435 H 227.097 2.951 0.0028244 0
M  V30 2436 H 227.178 2.05627 -1.52155 0
M  V30 2437 H 226.822 4.2399 -2.79633 0
M  V30 2438 H 226.752 5.11626 -1.24685 0
M  V30 2439 H 229.243 3.55499 -1.28175 0
M  V30 2440 H 229.556 7.03398 -3.20079 0
M  V30 2441 H 227.901 6.32873 -2.87223 0
M  V30 2442 H 231.092 4.37423 -1.66669 0
M  V30 2443 H 231.265 5.96077 -2.54158 0
M  V30 2444 N 224.671 0.411399 1.52136 0
M  V30 2445 C 225.918 -0.163645 2.01838 0
M  V30 2446 C 226.246 -1.4495 1.29691 0
M  V30 2447 O 225.501 -1.91725 0.392431 0
M  V30 2448 C 225.8 -0.455872 3.54481 0
M  V30 2449 C 225.466 0.741055 4.44769 0
M  V30 2450 C 224.128 1.06936 4.69167 0
M  V30 2451 C 226.48 1.54075 4.97906 0
M  V30 2452 C 223.808 2.19851 5.43951 0
M  V30 2453 C 226.16 2.66067 5.73926 0
M  V30 2454 C 224.824 2.99381 5.96596 0
M  V30 2455 H 224.094 -0.0598821 0.738576 0
M  V30 2456 H 226.741 0.553283 1.83333 0
M  V30 2457 H 225.046 -1.2544 3.71177 0
M  V30 2458 H 226.743 -0.913802 3.90449 0
M  V30 2459 H 223.333 0.475192 4.25958 0
M  V30 2460 H 227.517 1.30033 4.78963 0
M  V30 2461 H 222.773 2.46006 5.59724 0
M  V30 2462 H 226.947 3.28419 6.14096 0
M  V30 2463 H 224.574 3.86992 6.54325 0
M  V30 2464 N 226.149 -1.5696 0.141893 0
M  V30 2465 C 227.096 -2.16501 -0.799737 0
M  V30 2466 C 228.066 -1.09643 -1.24771 0
M  V30 2467 O 229.251 -1.3766 -1.32115 0
M  V30 2468 C 226.391 -2.78679 -2.03549 0
M  V30 2469 C 225.504 -3.99914 -1.6338 0
M  V30 2470 C 224.639 -4.50106 -2.82096 0
M  V30 2471 C 223.678 -5.63819 -2.38275 0
M  V30 2472 N 222.815 -6.08651 -3.49983 0
M  V30 2473 H 227.655 -2.96632 -0.285179 0
M  V30 2474 H 225.192 -1.46533 -0.129053 0
M  V30 2475 H 227.15 -3.1287 -2.75986 0
M  V30 2476 H 225.78 -2.012 -2.52425 0
M  V30 2477 H 224.832 -3.71735 -0.807279 0
M  V30 2478 H 226.144 -4.82311 -1.27192 0
M  V30 2479 H 225.298 -4.86325 -3.62729 0
M  V30 2480 H 224.037 -3.66706 -3.21525 0
M  V30 2481 H 223.042 -5.2718 -1.56081 0
M  V30 2482 H 224.267 -6.49 -1.99938 0
M  V30 2483 H 222.213 -5.28188 -3.89042 0
M  V30 2484 H 222.13 -6.85961 -3.17794 0
M  V30 2485 H 223.398 -6.49515 -4.30988 0
M  V30 2486 N 227.627 0.131896 -1.57047 0
M  V30 2487 C 228.857 0.855219 -1.88068 0
M  V30 2488 C 229.265 1.74557 -0.729817 0
M  V30 2489 O 228.608 1.81083 0.308962 0
M  V30 2490 C 228.67 1.75119 -3.13964 0
M  V30 2491 C 228.334 1.03646 -4.45091 0
M  V30 2492 C 229.331 0.383276 -5.18485 0
M  V30 2493 C 227.016 1.02148 -4.91804 0
M  V30 2494 C 229.01 -0.275347 -6.36805 0
M  V30 2495 C 226.697 0.359047 -6.10044 0
M  V30 2496 C 227.695 -0.288222 -6.82392 0
M  V30 2497 O 227.383 -0.94011 -7.98384 0
M  V30 2498 H 227.115 0.251864 -0.627328 0
M  V30 2499 H 229.669 0.124782 -2.05021 0
M  V30 2500 H 227.899 2.52295 -2.9306 0
M  V30 2501 H 229.588 2.3478 -3.31109 0
M  V30 2502 H 230.354 0.386562 -4.83457 0
M  V30 2503 H 226.233 1.5147 -4.35405 0
M  V30 2504 H 229.777 -0.781148 -6.93213 0
M  V30 2505 H 225.674 0.35348 -6.44531 0
M  V30 2506 H 226.442 -0.84329 -8.14144 0
M  V30 2507 N 229.106 1.52395 0.401703 0
M  V30 2508 C 230.354 1.66488 1.14569 0
M  V30 2509 C 230.675 0.400897 1.90835 0
M  V30 2510 O 229.945 -0.584415 1.8698 0
M  V30 2511 H 228.525 0.613672 0.425929 0
M  V30 2512 H 231.187 1.89464 0.457093 0
M  V30 2513 H 230.283 2.50942 1.85566 0
M  V30 2514 N 230.584 -0.659388 1.43143 0
M  V30 2515 C 231.832 -1.41654 1.44147 0
M  V30 2516 C 232.153 -1.94893 0.0645739 0
M  V30 2517 O 231.423 -1.74044 -0.899198 0
M  V30 2518 H 230.003 -0.525708 0.530697 0
M  V30 2519 H 232.665 -0.778097 1.78694 0
M  V30 2520 H 231.761 -2.26195 2.1504 0
M  V30 2521 N 232.062 -1.29571 -0.897171 0
M  V30 2522 C 233.302 -1.18959 -1.66217 0
M  V30 2523 C 233.666 0.254271 -1.90309 0
M  V30 2524 O 234.867 0.483407 -2.64417 0
M  V30 2525 C 233.138 -1.98302 -2.9734 0
M  V30 2526 S 234.697 -2.04253 -3.88364 0
M  V30 2527 H 231.515 -0.424137 -0.570639 0
M  V30 2528 H 234.117 -1.6389 -1.06585 0
M  V30 2529 H 232.821 -3.02342 -2.77521 0
M  V30 2530 H 232.352 -1.53986 -3.62011 0
M  V30 2531 H 234.367 -1.16105 -4.82425 0
M  V30 2532 N 233.54 1.10788 -1.12088 0
M  V30 2533 C 234.47 2.19083 -0.807755 0
M  V30 2534 C 235.451 1.6858 0.226859 0
M  V30 2535 O 236.636 1.93997 0.0888475 0
M  V30 2536 C 233.766 3.46344 -0.257576 0
M  V30 2537 C 232.72 4.101 -1.22483 0
M  V30 2538 C 232.046 5.32016 -0.535052 0
M  V30 2539 C 233.346 4.54236 -2.57811 0
M  V30 2540 H 235.04 2.45534 -1.71328 0
M  V30 2541 H 232.586 1.1801 -0.825205 0
M  V30 2542 H 234.539 4.21392 -0.0262679 0
M  V30 2543 H 233.263 3.19373 0.683278 0
M  V30 2544 H 231.922 3.37054 -1.44189 0
M  V30 2545 H 231.57 5.01319 0.410827 0
M  V30 2546 H 231.27 5.75625 -1.18024 0
M  V30 2547 H 232.794 6.09799 -0.312695 0
M  V30 2548 H 234.208 5.20575 -2.40155 0
M  V30 2549 H 232.605 5.08682 -3.18375 0
M  V30 2550 H 233.675 3.6734 -3.16528 0
M  V30 2551 N 235.018 0.912232 1.28515 0
M  V30 2552 C 236.266 0.543523 1.94654 0
M  V30 2553 C 236.587 -0.9155 1.72173 0
M  V30 2554 O 235.857 -1.64708 1.06058 0
M  V30 2555 H 234.437 0.198017 0.720277 0
M  V30 2556 H 237.099 1.16126 1.56527 0
M  V30 2557 H 236.195 0.736684 3.03281 0
M  V30 2558 N 236.496 -1.42363 0.676048 0
M  V30 2559 C 237.444 -2.32596 -0.0131507 0
M  V30 2560 C 238.438 -1.49891 -0.789238 0
M  V30 2561 O 239.644 -1.65955 -0.697061 0
M  V30 2562 H 236.019 -0.751647 -0.0230481 0
M  V30 2563 H 237.99 -2.88421 0.765243 0
M  V30 2564 C 236.739 -3.34479 -0.949702 0
M  V30 2565 H 236.062 -3.98158 -0.361938 0
M  V30 2566 H 237.502 -4.00199 -1.4006 0
M  V30 2567 C 235.961 -2.66838 -2.05667 0
M  V30 2568 O 236.491 -2.50124 -3.14326 0
M  V30 2569 N 234.697 -2.25843 -1.82875 0
M  V30 2570 H 234.244 -2.39637 -0.945085 0
M  V30 2571 H 234.202 -1.80918 -2.5713 0
M  V30 2572 N 237.974 -0.419461 -1.51915 0
M  V30 2573 C 238.907 0.445751 -2.23804 0
M  V30 2574 C 239.885 1.03951 -1.25031 0
M  V30 2575 O 241.069 1.08541 -1.54114 0
M  V30 2576 C 238.196 1.61964 -2.97465 0
M  V30 2577 C 237.242 1.14828 -4.10751 0
M  V30 2578 S 238.075 0.104938 -5.35397 0
M  V30 2579 C 239.231 1.28391 -6.1259 0
M  V30 2580 H 239.464 -0.164627 -2.96844 0
M  V30 2581 H 236.997 -0.203833 -1.53049 0
M  V30 2582 H 238.955 2.29271 -3.40507 0
M  V30 2583 H 237.616 2.20139 -2.24048 0
M  V30 2584 H 236.809 2.02561 -4.61503 0
M  V30 2585 H 236.411 0.553712 -3.69878 0
M  V30 2586 H 238.703 2.20563 -6.40592 0
M  V30 2587 H 239.646 0.816724 -7.03374 0
M  V30 2588 H 240.054 1.51439 -5.43807 0
M  V30 2589 N 239.452 1.56882 -0.150215 0
M  V30 2590 C 240.4 2.18214 0.805313 0
M  V30 2591 C 241.394 1.14006 1.25296 0
M  V30 2592 O 242.6 1.3225 1.22107 0
M  V30 2593 H 238.975 0.698762 0.277913 0
M  V30 2594 H 240.946 2.97231 0.263862 0
M  V30 2595 C 239.695 2.82065 2.03309 0
M  V30 2596 H 239.018 3.61968 1.69763 0
M  V30 2597 H 240.458 3.28477 2.68103 0
M  V30 2598 C 238.917 1.80739 2.84315 0
M  V30 2599 O 239.447 1.27983 3.80767 0
M  V30 2600 N 237.653 1.4997 2.48913 0
M  V30 2601 H 237.2 1.93062 1.70542 0
M  V30 2602 H 237.158 0.824217 3.03404 0
M  V30 2603 N 240.93 -0.123565 1.57115 0
M  V30 2604 C 241.878 -1.17082 2.00984 0
M  V30 2605 C 242.872 -1.43136 0.906009 0
M  V30 2606 O 244.078 -1.43152 1.09121 0
M  V30 2607 H 240.453 -0.394653 0.64012 0
M  V30 2608 H 242.424 -0.774292 2.88179 0
M  V30 2609 C 241.173 -2.49057 2.42623 0
M  V30 2610 H 240.496 -2.29846 3.27125 0
M  V30 2611 H 241.936 -3.20906 2.7712 0
M  V30 2612 C 240.395 -3.11305 1.28805 0
M  V30 2613 O 240.925 -3.97171 0.60153 0
M  V30 2614 N 239.131 -2.71111 1.04628 0
M  V30 2615 H 238.678 -2.01382 1.60634 0
M  V30 2616 H 238.636 -3.1309 0.286685 0
M  V30 2617 N 242.408 -1.52605 -0.393616 0
M  V30 2618 C 243.655 -1.67424 -1.1391 0
M  V30 2619 C 243.983 -0.411859 -1.90089 0
M  V30 2620 O 243.238 0.605626 -1.86093 0
M  V30 2621 C 243.537 -2.85721 -2.14705 0
M  V30 2622 C 243.203 -4.23342 -1.55218 0
M  V30 2623 C 241.865 -4.60771 -1.3872 0
M  V30 2624 C 244.217 -5.09041 -1.11924 0
M  V30 2625 C 241.545 -5.81563 -0.774689 0
M  V30 2626 C 243.897 -6.30452 -0.520853 0
M  V30 2627 C 242.561 -6.66617 -0.343134 0
M  V30 2628 H 241.831 -0.612648 -0.416826 0
M  V30 2629 H 244.478 -1.8674 -0.424315 0
M  V30 2630 H 242.783 -2.60803 -2.92385 0
M  V30 2631 H 244.48 -2.94382 -2.72288 0
M  V30 2632 H 241.07 -3.93855 -1.69045 0
M  V30 2633 H 245.254 -4.80695 -1.23473 0
M  V30 2634 H 240.51 -6.08196 -0.625154 0
M  V30 2635 H 244.684 -6.96175 -0.177065 0
M  V30 2636 H 242.311 -7.60083 0.133571 0
M  V30 2637 N 243.887 0.651787 -1.4349 0
M  V30 2638 C 244.797 1.79368 -1.5121 0
M  V30 2639 C 245.813 1.69361 -0.399093 0
M  V30 2640 O 246.989 1.90505 -0.653431 0
M  V30 2641 C 244.054 3.15653 -1.43401 0
M  V30 2642 C 243.115 3.37446 -2.65384 0
M  V30 2643 C 242.348 4.67229 -2.57939 0
M  V30 2644 O 242.571 5.46676 -1.62792 0
M  V30 2645 O 241.505 4.90773 -3.48462 0
M  V30 2646 H 245.331 1.7581 -2.47638 0
M  V30 2647 H 242.916 0.810447 -1.25507 0
M  V30 2648 H 244.798 3.96935 -1.41494 0
M  V30 2649 H 243.473 3.19798 -0.501085 0
M  V30 2650 H 242.38 2.55923 -2.72863 0
M  V30 2651 H 243.713 3.38148 -3.57654 0
M  V30 2652 N 245.365 1.30045 0.890287 0
M  V30 2653 C 246.593 1.21472 1.67487 0
M  V30 2654 C 247.008 -0.223241 1.87476 0
M  V30 2655 O 246.365 -1.14828 1.41847 0
M  V30 2656 C 246.416 1.93394 3.05419 0
M  V30 2657 O 246.137 3.31576 2.86337 0
M  V30 2658 C 247.638 1.91414 3.99844 0
M  V30 2659 H 244.858 0.420604 0.522813 0
M  V30 2660 H 247.402 1.7158 1.11268 0
M  V30 2661 H 245.557 1.47099 3.58386 0
M  V30 2662 H 245.971 3.67929 3.73802 0
M  V30 2663 H 247.445 2.46285 4.94012 0
M  V30 2664 H 247.922 0.891833 4.3005 0
M  V30 2665 H 248.528 2.37496 3.52811 0
M  V30 2666 N 246.843 -1.10192 1.12674 0
M  V30 2667 C 247.773 -2.18652 0.819362 0
M  V30 2668 C 248.754 -1.68698 -0.217915 0
M  V30 2669 O 249.939 -1.94041 -0.0785581 0
M  V30 2670 C 247.069 -3.46202 0.27594 0
M  V30 2671 C 246.023 -4.09444 1.24656 0
M  V30 2672 C 245.349 -5.31725 0.563258 0
M  V30 2673 C 246.649 -4.52863 2.60217 0
M  V30 2674 H 248.343 -2.44622 1.72628 0
M  V30 2675 H 245.889 -1.17571 0.831451 0
M  V30 2676 H 247.842 -4.21372 0.0486149 0
M  V30 2677 H 246.566 -3.1973 -0.666331 0
M  V30 2678 H 245.225 -3.36284 1.45974 0
M  V30 2679 H 244.873 -5.0153 -0.384235 0
M  V30 2680 H 244.573 -5.74991 1.21075 0
M  V30 2681 H 246.097 -6.09624 0.34503 0
M  V30 2682 H 247.511 -5.19294 2.42913 0
M  V30 2683 H 245.908 -5.06986 3.21068 0
M  V30 2684 H 246.978 -3.65656 3.18471 0
M  V30 2685 N 248.321 -0.919034 -1.28029 0
M  V30 2686 C 249.231 -0.416756 -2.30869 0
M  V30 2687 C 250.247 0.498235 -1.66714 0
M  V30 2688 O 251.423 0.383144 -1.97722 0
M  V30 2689 C 248.488 0.330274 -3.45123 0
M  V30 2690 C 247.549 -0.618578 -4.2482 0
M  V30 2691 C 246.782 0.0928959 -5.33619 0
M  V30 2692 O 247.005 1.31375 -5.55065 0
M  V30 2693 O 245.939 -0.574499 -5.99152 0
M  V30 2694 H 249.765 -1.27043 -2.75851 0
M  V30 2695 H 247.35 -0.684052 -1.3282 0
M  V30 2696 H 249.232 0.751972 -4.14636 0
M  V30 2697 H 247.907 1.1597 -3.02213 0
M  V30 2698 H 246.814 -1.08978 -3.57875 0
M  V30 2699 H 248.147 -1.41497 -4.71423 0
M  V30 2700 N 249.799 1.42003 -0.683588 0
M  V30 2701 C 250.709 2.34597 -0.0109075 0
M  V30 2702 C 251.725 1.55576 0.779245 0
M  V30 2703 O 252.901 1.88107 0.719555 0
M  V30 2704 C 249.966 3.34199 0.922588 0
M  V30 2705 C 249.027 4.29115 0.125984 0
M  V30 2706 C 248.26 5.23959 1.01502 0
M  V30 2707 O 248.483 5.23952 2.25456 0
M  V30 2708 O 247.417 6.00053 0.47111 0
M  V30 2709 H 251.243 2.93675 -0.773853 0
M  V30 2710 H 248.828 1.42654 -0.443861 0
M  V30 2711 H 250.71 3.95365 1.45823 0
M  V30 2712 H 249.385 2.77582 1.66523 0
M  V30 2713 H 248.292 3.71335 -0.453969 0
M  V30 2714 H 249.625 4.88798 -0.577736 0
M  V30 2715 N 251.277 0.427512 1.51691 0
M  V30 2716 C 252.517 -0.141524 2.03909 0
M  V30 2717 C 252.881 -1.40811 1.30523 0
M  V30 2718 O 254.082 -2.05676 1.73063 0
M  V30 2719 C 252.353 -0.364962 3.55532 0
M  V30 2720 S 253.912 -0.898812 4.29496 0
M  V30 2721 H 250.73 -0.0364542 0.710065 0
M  V30 2722 H 253.332 0.584659 1.86553 0
M  V30 2723 H 252.036 0.56336 4.06515 0
M  V30 2724 H 251.567 -1.1185 3.77164 0
M  V30 2725 H 253.582 -2.17747 4.45871 0
M  V30 2726 N 252.755 -1.56801 0.158532 0
M  V30 2727 C 253.702 -2.17337 -0.776729 0
M  V30 2728 C 254.672 -1.1096 -1.23601 0
M  V30 2729 O 255.857 -1.39054 -1.30647 0
M  V30 2730 C 252.997 -2.80822 -2.00582 0
M  V30 2731 C 252.11 -4.01624 -1.59129 0
M  V30 2732 C 251.245 -4.53072 -2.77306 0
M  V30 2733 C 250.284 -5.66314 -2.32282 0
M  V30 2734 N 249.421 -6.12329 -3.43508 0
M  V30 2735 H 254.261 -2.96918 -0.253701 0
M  V30 2736 H 251.798 -1.46661 -0.113504 0
M  V30 2737 H 253.756 -3.15779 -2.72652 0
M  V30 2738 H 252.386 -2.03866 -2.50277 0
M  V30 2739 H 251.438 -3.72571 -0.767806 0
M  V30 2740 H 252.75 -4.83633 -1.2207 0
M  V30 2741 H 251.904 -4.90145 -3.57551 0
M  V30 2742 H 250.643 -3.70095 -3.17617 0
M  V30 2743 H 249.648 -5.28806 -1.5048 0
M  V30 2744 H 250.873 -6.51085 -1.93043 0
M  V30 2745 H 248.819 -5.32284 -3.83418 0
M  V30 2746 H 248.736 -6.89293 -3.105 0
M  V30 2747 H 250.004 -6.5405 -4.24075 0
M  V30 2748 N 254.233 0.115231 -1.57178 0
M  V30 2749 C 255.181 1.16014 -2.01602 0
M  V30 2750 C 256.175 1.42653 -0.913587 0
M  V30 2751 O 257.381 1.42571 -1.09879 0
M  V30 2752 H 253.756 0.391252 -0.642204 0
M  V30 2753 H 255.727 0.758998 -2.88586 0
M  V30 2754 C 254.476 2.47767 -2.4394 0
M  V30 2755 H 253.799 2.28108 -3.28339 0
M  V30 2756 H 255.239 3.19432 -2.78818 0
M  V30 2757 C 253.698 3.10617 -1.30455 0
M  V30 2758 O 254.228 3.96846 -0.622585 0
M  V30 2759 N 252.434 2.70553 -1.06064 0
M  V30 2760 H 251.981 2.00527 -1.61699 0
M  V30 2761 H 251.939 3.12934 -0.303284 0
M  V30 2762 N 255.711 1.52812 0.385517 0
M  V30 2763 C 256.96 1.67249 1.12741 0
M  V30 2764 C 257.273 0.4205 1.91027 0
M  V30 2765 O 258.479 0.445064 2.67827 0
M  V30 2766 C 256.935 2.95583 2.05326 0
M  V30 2767 C 256.543 4.27974 1.32447 0
M  V30 2768 C 258.287 3.19386 2.7963 0
M  V30 2769 C 256.194 5.47412 2.23818 0
M  V30 2770 H 255.124 0.6231 0.424573 0
M  V30 2771 H 257.775 1.79309 0.389924 0
M  V30 2772 H 256.157 2.77277 2.82725 0
M  V30 2773 H 257.331 4.56844 0.602495 0
M  V30 2774 H 255.646 4.10459 0.700885 0
M  V30 2775 H 258.243 4.05801 3.48181 0
M  V30 2776 H 258.586 2.34604 3.43899 0
M  V30 2777 H 259.119 3.38274 2.09322 0
M  V30 2778 H 255.858 6.34612 1.64157 0
M  V30 2779 H 255.378 5.22849 2.93921 0
M  V30 2780 H 257.057 5.81423 2.83824 0
M  V30 2781 N 257.189 -0.644168 1.43834 0
M  V30 2782 C 258.429 -1.41565 1.47441 0
M  V30 2783 C 258.793 -1.91743 0.0992723 0
M  V30 2784 O 259.994 -2.68798 0.0100192 0
M  V30 2785 C 258.265 -2.55902 2.49498 0
M  V30 2786 S 259.824 -3.44287 2.72051 0
M  V30 2787 H 256.642 -0.483118 0.521649 0
M  V30 2788 H 259.244 -0.747008 1.80666 0
M  V30 2789 H 257.948 -2.17327 3.48134 0
M  V30 2790 H 257.479 -3.27607 2.17801 0
M  V30 2791 H 259.494 -4.52927 2.0266 0
M  V30 2792 N 258.668 -1.30515 -0.883378 0
M  V30 2793 C 259.578 -1.18959 -2.02203 0
M  V30 2794 C 260.594 -0.109172 -1.73657 0
M  V30 2795 O 261.77 -0.324413 -1.9877 0
M  V30 2796 C 258.835 -0.883871 -3.35244 0
M  V30 2797 C 257.896 -2.04982 -3.77201 0
M  V30 2798 C 257.129 -1.75859 -5.03894 0
M  V30 2799 O 257.352 -0.687276 -5.66244 0
M  V30 2800 O 256.286 -2.61146 -5.42297 0
M  V30 2801 H 260.112 -2.14616 -2.1488 0
M  V30 2802 H 257.697 -1.10124 -1.0096 0
M  V30 2803 H 259.579 -0.728644 -4.15053 0
M  V30 2804 H 258.254 0.0427798 -3.23672 0
M  V30 2805 H 257.161 -2.26038 -2.9809 0
M  V30 2806 H 258.494 -2.95825 -3.93381 0
M  V30 2807 N 260.146 1.09593 -1.13257 0
M  V30 2808 C 261.423 1.78293 -0.804432 0
M  V30 2809 C 261.803 1.99004 0.70431 0
M  V30 2810 O 261.151 1.59007 1.641 0
M  V30 2811 C 261.361 3.10707 -1.5894 0
M  V30 2812 C 262.709 3.85443 -1.78099 0
M  V30 2813 O 263.733 3.20454 -1.55525 0
M  V30 2814 O 262.592 5.02108 -2.15753 0
M  V30 2815 H 259.686 0.773156 -0.293528 0
M  V30 2816 H 262.232 1.16164 -1.23709 0
M  V30 2817 H 261.004 2.91106 -2.61482 0
M  V30 2818 H 260.627 3.80558 -1.15157 0
M  V30 2819 N 261.624 0.925811 1.2754 0
M  V30 2820 C 262.872 0.564138 1.94067 0
M  V30 2821 C 263.193 -0.897188 1.73134 0
M  V30 2822 O 262.463 -1.63573 1.07799 0
M  V30 2823 H 261.043 0.205645 0.718136 0
M  V30 2824 H 263.705 1.1778 1.55287 0
M  V30 2825 H 262.801 0.76881 3.02483 0
M  V30 2826 N 263.102 -1.41638 0.69111 0
M  V30 2827 C 264.513 -1.84346 0.295517 0
M  V30 2828 C 264.864 -1.57833 -1.16547 0
M  V30 2829 O 263.989 -1.04648 -1.89414 0
M  V30 2830 C 264.584 -3.34636 0.529575 0
M  V30 2831 C 263.143 -3.7593 0.187944 0
M  V30 2832 C 262.29 -2.65082 0.814052 0
M  V30 2833 H 265.241 -1.31253 0.892092 0
M  V30 2834 H 265.262 -3.79903 -0.213148 0
M  V30 2835 H 264.774 -3.53901 1.59297 0
M  V30 2836 H 262.875 -3.62268 -0.871367 0
M  V30 2837 H 262.988 -4.74808 0.63985 0
M  V30 2838 H 261.352 -2.53528 0.244017 0
M  V30 2839 H 262.135 -2.87167 1.88123 0
M  V30 2840 N 264.58 -0.43555 -1.51462 0
M  V30 2841 C 265.528 0.391205 -2.29287 0
M  V30 2842 C 266.522 1.02247 -1.35062 0
M  V30 2843 O 267.728 0.957646 -1.52411 0
M  V30 2844 H 264.103 0.144968 -0.737895 0
M  V30 2845 H 266.074 -0.286051 -2.97026 0
M  V30 2846 C 264.823 1.48096 -3.14583 0
M  V30 2847 H 264.146 1.00457 -3.86973 0
M  V30 2848 H 265.586 2.03273 -3.72097 0
M  V30 2849 C 264.045 2.46321 -2.29843 0
M  V30 2850 O 264.575 3.50815 -1.95682 0
M  V30 2851 N 262.781 2.17166 -1.931 0
M  V30 2852 H 262.328 1.32218 -2.21079 0
M  V30 2853 H 262.286 2.83127 -1.36698 0
M  V30 2854 N 266.058 1.56714 -0.166846 0
M  V30 2855 C 267.306 1.96358 0.478305 0
M  V30 2856 C 267.627 1.0537 1.6408 0
M  V30 2857 O 266.897 0.119154 1.95537 0
M  V30 2858 H 265.477 0.725065 0.179692 0
M  V30 2859 H 268.139 1.93329 -0.246985 0
M  V30 2860 H 267.235 3.00547 0.841292 0
M  V30 2861 N 267.536 -0.106894 1.57237 0
M  V30 2862 C 268.783 -0.812526 1.85484 0
M  V30 2863 C 269.111 -1.79304 0.753687 0
M  V30 2864 O 268.366 -1.94047 -0.253853 0
M  V30 2865 C 268.665 -1.58628 3.20268 0
M  V30 2866 C 268.331 -0.748967 4.44636 0
M  V30 2867 C 266.993 -0.518104 4.78403 0
M  V30 2868 C 269.345 -0.166122 5.20935 0
M  V30 2869 C 266.673 0.305659 5.85903 0
M  V30 2870 C 269.025 0.644899 6.29304 0
M  V30 2871 C 267.689 0.885965 6.61594 0
M  V30 2872 H 266.959 -0.297324 0.678734 0
M  V30 2873 H 269.606 -0.0744332 1.91355 0
M  V30 2874 H 267.911 -2.39562 3.10028 0
M  V30 2875 H 269.608 -2.13643 3.39349 0
M  V30 2876 H 266.198 -0.939006 4.18187 0
M  V30 2877 H 270.382 -0.33167 4.95191 0
M  V30 2878 H 265.638 0.501528 6.0934 0
M  V30 2879 H 269.812 1.10345 6.87602 0
M  V30 2880 H 267.439 1.52609 7.44725 0
M  V30 2881 N 269.014 -1.53014 -0.377408 0
M  V30 2882 C 269.946 -1.74884 -1.48149 0
M  V30 2883 C 270.959 -0.629433 -1.5014 0
M  V30 2884 O 272.148 -0.905416 -1.53833 0
M  V30 2885 C 269.248 -1.80299 -2.86959 0
M  V30 2886 C 268.421 -3.09776 -3.08801 0
M  V30 2887 C 267.48 -3.06586 -4.27658 0
M  V30 2888 O 266.506 -3.80419 -4.23403 0
M  V30 2889 N 267.708 -2.26578 -5.34455 0
M  V30 2890 H 270.473 -2.70147 -1.29771 0
M  V30 2891 H 268.034 -1.51646 -0.56703 0
M  V30 2892 H 270.026 -1.75657 -3.64591 0
M  V30 2893 H 268.596 -0.92372 -2.98641 0
M  V30 2894 H 267.816 -3.27815 -2.18931 0
M  V30 2895 H 269.104 -3.95366 -3.20255 0
M  V30 2896 H 268.502 -1.66081 -5.40771 0
M  V30 2897 H 267.059 -2.27766 -6.10709 0
M  V30 2898 N 270.492 0.636531 -1.44174 0
M  V30 2899 C 271.738 1.39826 -1.4689 0
M  V30 2900 C 272.071 1.93947 -0.0990585 0
M  V30 2901 O 271.346 1.73325 0.882544 0
M  V30 2902 C 271.629 2.56751 -2.5249 0
M  V30 2903 C 271.482 2.08014 -3.98811 0
M  V30 2904 C 272.801 3.58946 -2.54649 0
M  V30 2905 H 269.92 0.507075 -0.53483 0
M  V30 2906 H 272.562 0.720188 -1.75822 0
M  V30 2907 H 270.712 3.14597 -2.2795 0
M  V30 2908 H 272.384 1.5504 -4.34466 0
M  V30 2909 H 270.627 1.39242 -4.10846 0
M  V30 2910 H 271.298 2.92169 -4.68339 0
M  V30 2911 H 273.774 3.1089 -2.76563 0
M  V30 2912 H 272.65 4.38286 -3.3045 0
M  V30 2913 H 272.911 4.12655 -1.58646 0
M  V30 2914 N 271.97 1.30982 0.876444 0
M  V30 2915 C 273.247 1.10942 1.61094 0
M  V30 2916 C 273.627 -0.338223 2.08373 0
M  V30 2917 O 272.975 -1.33122 1.85717 0
M  V30 2918 C 273.185 2.11789 2.77392 0
M  V30 2919 C 274.533 2.43965 3.47514 0
M  V30 2920 O 275.557 2.10166 2.87591 0
M  V30 2921 O 274.416 3.01817 4.55597 0
M  V30 2922 H 271.51 0.42667 0.708436 0
M  V30 2923 H 274.056 1.42438 0.922474 0
M  V30 2924 H 272.828 3.09194 2.39823 0
M  V30 2925 H 272.451 1.81161 3.5393 0
M  V30 2926 N 273.449 -1.08991 1.13837 0
M  V30 2927 C 274.397 -2.17841 0.815347 0
M  V30 2928 C 275.391 -1.68164 -0.204233 0
M  V30 2929 O 276.597 -1.79897 -0.0609304 0
M  V30 2930 H 272.972 -0.710654 0.245915 0
M  V30 2931 H 274.943 -2.42315 1.74143 0
M  V30 2932 C 273.692 -3.46381 0.302614 0
M  V30 2933 H 273.015 -3.84979 1.0785 0
M  V30 2934 H 274.455 -4.23844 0.115074 0
M  V30 2935 C 272.914 -3.22556 -0.972591 0
M  V30 2936 O 273.444 -3.45599 -2.04754 0
M  V30 2937 N 271.65 -2.76134 -0.905455 0
M  V30 2938 H 271.197 -2.57582 -0.0305421 0
M  V30 2939 H 271.155 -2.60571 -1.75926 0
M  V30 2940 N 274.927 -0.932562 -1.27047 0
M  V30 2941 C 276.157 -0.591173 -1.97961 0
M  V30 2942 C 276.565 0.836219 -1.69717 0
M  V30 2943 O 275.908 1.56801 -0.957036 0
M  V30 2944 C 275.97 -0.743082 -3.51736 0
M  V30 2945 C 275.634 -2.1435 -4.03613 0
M  V30 2946 C 276.631 -3.11815 -4.16014 0
M  V30 2947 C 274.316 -2.46175 -4.37839 0
M  V30 2948 C 276.31 -4.39211 -4.61923 0
M  V30 2949 C 273.997 -3.73806 -4.83438 0
M  V30 2950 C 274.995 -4.70137 -4.95439 0
M  V30 2951 O 274.683 -5.95496 -5.40037 0
M  V30 2952 H 274.415 -0.222375 -0.638377 0
M  V30 2953 H 276.969 -1.25317 -1.62742 0
M  V30 2954 H 275.199 -0.0239739 -3.86693 0
M  V30 2955 H 276.888 -0.40603 -4.03864 0
M  V30 2956 H 277.654 -2.88549 -3.89826 0
M  V30 2957 H 273.533 -1.71936 -4.27737 0
M  V30 2958 H 277.077 -5.14404 -4.71205 0
M  V30 2959 H 272.974 -3.96888 -5.09068 0
M  V30 2960 H 273.742 -5.98554 -5.58279 0
M  V30 2961 N 276.405 1.4127 -0.698611 0
M  V30 2962 C 277.653 2.00782 -0.230409 0
M  V30 2963 C 277.974 1.5562 1.17505 0
M  V30 2964 O 277.244 0.78815 1.79346 0
M  V30 2965 H 275.824 0.742464 -0.0821944 0
M  V30 2966 H 278.486 1.72852 -0.90045 0
M  V30 2967 H 277.582 3.11095 -0.25021 0
M  V30 2968 N 277.883 0.443576 1.51229 0
M  V30 2969 C 279.111 -0.11929 2.06556 0
M  V30 2970 C 279.526 -1.35921 1.31038 0
M  V30 2971 O 278.883 -1.78675 0.371704 0
M  V30 2972 C 278.934 -0.435228 3.5887 0
M  V30 2973 O 278.655 0.755486 4.31537 0
M  V30 2974 C 280.156 -1.04808 4.30732 0
M  V30 2975 H 277.376 -0.0051584 0.67098 0
M  V30 2976 H 279.92 0.624453 1.94733 0
M  V30 2977 H 278.075 -1.12887 3.70588 0
M  V30 2978 H 278.489 0.483491 5.22267 0
M  V30 2979 H 279.963 -1.2191 5.3837 0
M  V30 2980 H 280.44 -2.03081 3.89429 0
M  V30 2981 H 281.046 -0.393637 4.23474 0
M  V30 2982 N 279.361 -1.56624 0.175154 0
M  V30 2983 C 280.293 -2.15333 -0.785128 0
M  V30 2984 C 281.306 -1.1099 -1.19101 0
M  V30 2985 O 282.495 -1.38162 -1.13019 0
M  V30 2986 C 279.595 -2.68427 -2.06882 0
M  V30 2987 C 278.768 -3.97466 -1.8259 0
M  V30 2988 C 277.827 -4.35585 -2.95215 0
M  V30 2989 O 276.853 -5.03389 -2.65684 0
M  V30 2990 N 278.055 -3.97457 -4.23094 0
M  V30 2991 H 280.82 -2.98359 -0.283187 0
M  V30 2992 H 278.381 -1.61898 -0.00749817 0
M  V30 2993 H 280.373 -2.90924 -2.81328 0
M  V30 2994 H 278.943 -1.89968 -2.48256 0
M  V30 2995 H 278.163 -3.83307 -0.920287 0
M  V30 2996 H 279.451 -4.81736 -1.63733 0
M  V30 2997 H 278.849 -3.42878 -4.49945 0
M  V30 2998 H 277.406 -4.24947 -4.9423 0
M  V30 2999 N 280.839 0.0985539 -1.57292 0
M  V30 3000 C 281.769 1.12064 -2.04851 0
M  V30 3001 C 282.75 1.41981 -0.936767 0
M  V30 3002 O 283.935 1.52071 -1.20781 0
M  V30 3003 C 281.065 2.44144 -2.47004 0
M  V30 3004 C 280.019 2.28643 -3.6181 0
M  V30 3005 C 279.345 3.65869 -3.89929 0
M  V30 3006 C 280.645 1.72986 -4.92822 0
M  V30 3007 H 282.339 0.724979 -2.9049 0
M  V30 3008 H 279.885 0.34729 -1.39749 0
M  V30 3009 H 281.838 3.15914 -2.78884 0
M  V30 3010 H 280.562 2.85639 -1.5836 0
M  V30 3011 H 279.221 1.59318 -3.30172 0
M  V30 3012 H 278.869 4.04885 -2.98458 0
M  V30 3013 H 278.569 3.56344 -4.67218 0
M  V30 3014 H 280.093 4.39112 -4.2428 0
M  V30 3015 H 281.507 2.34593 -5.23105 0
M  V30 3016 H 279.904 1.74229 -5.74251 0
M  V30 3017 H 280.974 0.689007 -4.7998 0
M  V30 3018 N 282.317 1.53212 0.369288 0
M  V30 3019 C 283.265 1.80054 1.47253 0
M  V30 3020 C 284.259 0.669456 1.55611 0
M  V30 3021 O 285.465 0.852328 1.58541 0
M  V30 3022 H 281.84 0.570034 0.490475 0
M  V30 3023 H 283.811 2.72403 1.21817 0
M  V30 3024 C 282.56 2.00403 2.84137 0
M  V30 3025 H 281.883 2.86876 2.78464 0
M  V30 3026 H 283.323 2.23164 3.60519 0
M  V30 3027 C 281.782 0.782081 3.27697 0
M  V30 3028 O 282.312 -0.0310205 4.01688 0
M  V30 3029 N 280.518 0.606573 2.84199 0
M  V30 3030 H 280.065 1.26939 2.24152 0
M  V30 3031 H 280.023 -0.20962 3.137 0
M  V30 3032 N 283.795 -0.628877 1.44509 0
M  V30 3033 C 284.758 -1.72263 1.51188 0
M  V30 3034 C 285.758 -1.55907 0.39367 0
M  V30 3035 O 286.948 -1.61361 0.656377 0
M  V30 3036 C 284.08 -3.11365 1.38798 0
M  V30 3037 H 285.273 -1.67714 2.4862 0
M  V30 3038 H 282.826 -0.842737 1.31634 0
M  V30 3039 H 283.561 -3.21507 0.424693 0
M  V30 3040 H 283.346 -3.24644 2.19884 0
M  V30 3041 H 284.836 -3.91075 1.46458 0
M  V30 3042 N 285.273 -1.31445 -0.869486 0
M  V30 3043 C 286.519 -1.21337 -1.62496 0
M  V30 3044 C 286.852 0.227872 -1.92858 0
M  V30 3045 O 286.127 1.16094 -1.56053 0
M  V30 3046 C 286.41 -2.05814 -2.95487 0
M  V30 3047 C 286.263 -3.5824 -2.72 0
M  V30 3048 C 287.582 -1.9079 -3.96594 0
M  V30 3049 H 284.701 -0.442135 -0.589649 0
M  V30 3050 H 287.343 -1.6124 -1.00507 0
M  V30 3051 H 285.493 -1.71913 -3.48394 0
M  V30 3052 H 287.165 -4.0228 -2.25762 0
M  V30 3053 H 285.408 -3.81647 -2.06224 0
M  V30 3054 H 286.079 -4.12657 -3.66631 0
M  V30 3055 H 288.555 -2.20459 -3.52898 0
M  V30 3056 H 287.431 -2.52199 -4.87531 0
M  V30 3057 H 287.692 -0.871341 -4.33428 0
M  V30 3058 N 286.751 1.08385 -1.14413 0
M  V30 3059 C 287.699 2.17406 -0.826888 0
M  V30 3060 C 288.693 1.6827 0.195312 0
M  V30 3061 O 289.899 1.79927 0.0513892 0
M  V30 3062 H 286.274 0.70934 -0.249681 0
M  V30 3063 H 288.245 2.41388 -1.75426 0
M  V30 3064 C 286.994 3.46215 -0.320979 0
M  V30 3065 H 286.317 3.84401 -1.0989 0
M  V30 3066 H 287.757 4.23777 -0.137549 0
M  V30 3067 C 286.216 3.23067 0.955472 0
M  V30 3068 O 286.746 3.4668 2.02918 0
M  V30 3069 N 284.952 2.7661 0.890798 0
M  V30 3070 H 284.499 2.57594 0.0168815 0
M  V30 3071 H 284.457 2.61501 1.74542 0
M  V30 3072 N 288.23 0.939286 1.26551 0
M  V30 3073 C 289.178 0.43815 2.28436 0
M  V30 3074 C 290.172 -0.483587 1.62351 0
M  V30 3075 O 291.378 -0.362009 1.76322 0
M  V30 3076 H 287.753 0.123149 0.741848 0
M  V30 3077 H 289.724 1.31002 2.68106 0
M  V30 3078 C 288.473 -0.283052 3.46546 0
M  V30 3079 H 287.796 0.417043 3.97619 0
M  V30 3080 H 289.236 -0.597948 4.19763 0
M  V30 3081 C 287.695 -1.50018 3.01656 0
M  V30 3082 O 288.225 -2.59855 3.0633 0
M  V30 3083 N 286.431 -1.35608 2.57019 0
M  V30 3084 H 285.978 -0.46244 2.53415 0
M  V30 3085 H 285.936 -2.17165 2.27347 0
M  V30 3086 N 289.708 -1.40897 0.706093 0
M  V30 3087 C 290.933 -2.05895 0.249435 0
M  V30 3088 C 291.358 -1.52823 -1.09666 0
M  V30 3089 O 290.716 -0.659589 -1.68876 0
M  V30 3090 C 290.764 -3.59872 0.22904 0
M  V30 3091 O 289.868 -4.04708 -0.792784 0
M  V30 3092 H 289.209 -0.653206 0.119241 0
M  V30 3093 H 291.739 -1.80471 0.96391 0
M  V30 3094 H 291.749 -4.07951 0.0634791 0
M  V30 3095 H 290.424 -3.97866 1.21141 0
M  V30 3096 H 289.001 -3.68111 -0.59572 0
M  V30 3097 N 291.186 -0.45159 -1.50991 0
M  V30 3098 C 292.116 0.342898 -2.30969 0
M  V30 3099 C 293.097 1.00815 -1.37005 0
M  V30 3100 O 294.282 1.00907 -1.65926 0
M  V30 3101 C 291.412 1.43637 -3.16205 0
M  V30 3102 C 290.366 0.893818 -4.18563 0
M  V30 3103 C 289.692 2.08411 -4.92411 0
M  V30 3104 C 290.992 -0.0815568 -5.22236 0
M  V30 3105 H 292.686 -0.324556 -2.97636 0
M  V30 3106 H 290.232 -0.157531 -1.43136 0
M  V30 3107 H 292.185 1.9995 -3.70942 0
M  V30 3108 H 290.909 2.13232 -2.47386 0
M  V30 3109 H 289.568 0.352798 -3.64898 0
M  V30 3110 H 289.216 2.76658 -4.20082 0
M  V30 3111 H 288.916 1.72741 -5.61636 0
M  V30 3112 H 290.44 2.65251 -5.49976 0
M  V30 3113 H 291.854 0.391742 -5.7196 0
M  V30 3114 H 290.251 -0.351551 -5.99069 0
M  V30 3115 H 291.321 -1.01374 -4.74185 0
M  V30 3116 N 292.664 1.56529 -0.183458 0
M  V30 3117 C 293.892 2.01623 0.464285 0
M  V30 3118 C 294.307 1.06366 1.55986 0
M  V30 3119 O 293.664 0.0665398 1.82379 0
M  V30 3120 C 293.715 3.46475 1.03139 0
M  V30 3121 O 293.436 4.38095 -0.0204675 0
M  V30 3122 C 294.937 4.0703 1.75617 0
M  V30 3123 H 292.157 0.660596 0.117704 0
M  V30 3124 H 294.701 2.02451 -0.288751 0
M  V30 3125 H 292.856 3.46383 1.73486 0
M  V30 3126 H 293.27 5.22973 0.399952 0
M  V30 3127 H 294.744 5.10271 2.10542 0
M  V30 3128 H 295.221 3.49819 2.65563 0
M  V30 3129 H 295.827 4.1086 1.09882 0
M  V30 3130 N 294.142 -0.090211 1.57342 0
M  V30 3131 C 295.553 -0.644173 1.75235 0
M  V30 3132 C 295.904 -1.78865 0.806335 0
M  V30 3133 O 295.029 -2.16395 -0.0140128 0
M  V30 3134 C 295.624 -1.17532 3.1776 0
M  V30 3135 C 294.183 -1.67531 3.37061 0
M  V30 3136 C 293.33 -0.58693 2.71017 0
M  V30 3137 H 296.281 0.135884 1.58117 0
M  V30 3138 H 296.302 -2.04455 3.20902 0
M  V30 3139 H 295.814 -0.342138 3.86589 0
M  V30 3140 H 293.915 -2.53234 2.73319 0
M  V30 3141 H 294.028 -1.76493 4.45406 0
M  V30 3142 H 292.392 -1.02756 2.33052 0
M  V30 3143 H 293.175 0.235758 3.4249 0
M  V30 3144 N 295.62 -1.53406 -0.361157 0
M  V30 3145 C 296.552 -1.76446 -1.46286 0
M  V30 3146 C 297.565 -0.645322 -1.49464 0
M  V30 3147 O 298.754 -0.921681 -1.52864 0
M  V30 3148 C 295.854 -1.83332 -2.85031 0
M  V30 3149 C 295.027 -3.13033 -3.05498 0
M  V30 3150 C 294.086 -3.11104 -4.24383 0
M  V30 3151 O 293.112 -3.84888 -4.19344 0
M  V30 3152 N 294.314 -2.32234 -5.32022 0
M  V30 3153 H 297.079 -2.71508 -1.26899 0
M  V30 3154 H 294.64 -1.52238 -0.550915 0
M  V30 3155 H 296.632 -1.79514 -3.62708 0
M  V30 3156 H 295.202 -0.955342 -2.97644 0
M  V30 3157 H 294.422 -3.30119 -2.15442 0
M  V30 3158 H 295.71 -3.9874 -3.16044 0
M  V30 3159 H 295.108 -1.71807 -5.38979 0
M  V30 3160 H 293.665 -2.3423 -6.08259 0
M  V30 3161 N 297.098 0.621204 -1.44841 0
M  V30 3162 C 298.323 1.41244 -1.51871 0
M  V30 3163 C 298.748 1.87519 -0.147764 0
M  V30 3164 O 298.106 1.59334 0.865 0
M  V30 3165 C 298.154 2.60221 -2.49634 0
M  V30 3166 O 297.258 3.60395 -2.00473 0
M  V30 3167 H 296.599 0.42223 -0.512463 0
M  V30 3168 H 299.129 0.757305 -1.90069 0
M  V30 3169 H 299.139 3.0764 -2.67996 0
M  V30 3170 H 297.814 2.25887 -3.4921 0
M  V30 3171 H 296.391 3.19717 -1.91925 0
M  V30 3172 N 298.576 1.31904 0.862503 0
M  V30 3173 C 299.804 1.24998 1.64873 0
M  V30 3174 C 300.219 -0.183425 1.87907 0
M  V30 3175 O 299.576 -1.11794 1.44251 0
M  V30 3176 C 299.627 1.99829 3.01248 0
M  V30 3177 O 299.348 3.37575 2.79239 0
M  V30 3178 C 300.849 1.99852 3.95694 0
M  V30 3179 H 298.069 0.431599 0.513773 0
M  V30 3180 H 300.613 1.73901 1.07604 0
M  V30 3181 H 298.768 1.54668 3.55185 0
M  V30 3182 H 299.182 3.75776 3.65914 0
M  V30 3183 H 300.656 2.56709 4.88676 0
M  V30 3184 H 301.133 0.982852 4.28062 0
M  V30 3185 H 301.739 2.44926 3.47694 0
M  V30 3186 N 300.054 -1.07777 1.14986 0
M  V30 3187 C 301.001 -2.14867 0.842672 0
M  V30 3188 C 301.971 -1.6486 -0.202552 0
M  V30 3189 O 303.156 -1.90668 -0.0710568 0
M  V30 3190 C 300.296 -3.43486 0.333363 0
M  V30 3191 C 299.409 -4.07306 1.43965 0
M  V30 3192 C 298.544 -5.23744 0.886914 0
M  V30 3193 C 297.583 -5.79517 1.97043 0
M  V30 3194 N 296.72 -6.87291 1.4344 0
M  V30 3195 H 301.56 -2.40485 1.75986 0
M  V30 3196 H 299.097 -1.1801 0.878179 0
M  V30 3197 H 301.055 -4.17195 0.0198163 0
M  V30 3198 H 299.685 -3.18133 -0.546916 0
M  V30 3199 H 298.737 -3.31293 1.86946 0
M  V30 3200 H 300.049 -4.44771 2.25788 0
M  V30 3201 H 299.203 -6.04419 0.525651 0
M  V30 3202 H 297.942 -4.87685 0.0377957 0
M  V30 3203 H 296.947 -4.97491 2.34057 0
M  V30 3204 H 298.172 -6.17632 2.82325 0
M  V30 3205 H 296.118 -6.5318 0.607567 0
M  V30 3206 H 296.035 -7.23617 2.18895 0
M  V30 3207 H 297.303 -7.71682 1.10124 0
M  V30 3208 N 301.532 -0.945985 -1.26051 0
M  V30 3209 C 302.778 -0.597002 -1.93814 0
M  V30 3210 C 303.111 0.862484 -1.73997 0
M  V30 3211 O 302.386 1.61769 -1.07986 0
M  V30 3212 C 302.669 -0.945937 -3.47454 0
M  V30 3213 C 302.522 -2.46052 -3.76535 0
M  V30 3214 C 303.841 -0.464785 -4.37639 0
M  V30 3215 H 300.96 -0.218366 -0.703907 0
M  V30 3216 H 303.602 -1.18107 -1.48831 0
M  V30 3217 H 301.752 -0.448902 -3.85898 0
M  V30 3218 H 303.424 -3.03065 -3.47778 0
M  V30 3219 H 301.667 -2.90194 -3.22444 0
M  V30 3220 H 302.338 -2.65517 -4.83947 0
M  V30 3221 H 304.814 -0.891016 -4.06448 0
M  V30 3222 H 303.69 -0.737712 -5.4392 0
M  V30 3223 H 303.951 0.635274 -4.37512 0
M  V30 3224 N 303.011 1.40521 -0.713556 0
M  V30 3225 C 304.422 1.83853 -0.324807 0
M  V30 3226 C 304.773 1.59667 1.14021 0
M  V30 3227 O 303.898 1.07649 1.87725 0
M  V30 3228 C 304.493 3.33751 -0.582746 0
M  V30 3229 C 303.052 3.75584 -0.247727 0
M  V30 3230 C 302.199 2.63753 -0.856121 0
M  V30 3231 H 305.15 1.29817 -0.91286 0
M  V30 3232 H 305.171 3.80194 0.152682 0
M  V30 3233 H 304.683 3.51322 -1.64908 0
M  V30 3234 H 302.784 3.63608 0.813624 0
M  V30 3235 H 302.897 4.7373 -0.715307 0
M  V30 3236 H 301.261 2.53108 -0.28432 0
M  V30 3237 H 302.044 2.84137 -1.92668 0
M  V30 3238 N 304.489 0.459591 1.5075 0
M  V30 3239 C 305.714 -0.0996819 2.0716 0
M  V30 3240 C 306.139 -1.33761 1.32249 0
M  V30 3241 O 305.497 -1.77551 0.366786 0
M  V30 3242 C 305.545 -0.378226 3.58611 0
M  V30 3243 O 304.649 -1.46081 3.85661 0
M  V30 3244 H 303.99 0.00791392 0.663953 0
M  V30 3245 H 306.52 0.647329 1.9409 0
M  V30 3246 H 306.53 -0.622135 4.03229 0
M  V30 3247 H 305.205 0.526439 4.12555 0
M  V30 3248 H 303.782 -1.20511 3.5289 0
M  V30 3249 N 305.967 -1.56429 0.191757 0
M  V30 3250 C 306.897 -2.21937 -0.725696 0
M  V30 3251 C 307.878 -1.1814 -1.2238 0
M  V30 3252 O 309.063 -1.46636 -1.27325 0
M  V30 3253 C 306.193 -2.87611 -1.94672 0
M  V30 3254 C 305.147 -3.97623 -1.58366 0
M  V30 3255 C 304.473 -4.50446 -2.88102 0
M  V30 3256 C 305.773 -5.16197 -0.796133 0
M  V30 3257 H 307.467 -2.98861 -0.179606 0
M  V30 3258 H 305.013 -1.43749 -0.0849464 0
M  V30 3259 H 306.966 -3.3212 -2.59373 0
M  V30 3260 H 305.69 -2.08087 -2.51728 0
M  V30 3261 H 304.349 -3.53801 -0.960247 0
M  V30 3262 H 303.997 -3.67688 -3.43241 0
M  V30 3263 H 303.697 -5.24675 -2.64556 0
M  V30 3264 H 305.221 -4.97654 -3.53798 0
M  V30 3265 H 306.635 -5.57271 -1.34618 0
M  V30 3266 H 305.032 -5.96471 -0.658928 0
M  V30 3267 H 306.102 -4.84473 0.203478 0
M  V30 3268 N 307.445 0.0818655 -1.57387 0
M  V30 3269 C 308.692 0.782914 -1.86753 0
M  V30 3270 C 309.02 1.78082 -0.782118 0
M  V30 3271 O 308.275 1.94426 0.22295 0
M  V30 3272 C 308.574 1.53513 -3.22752 0
M  V30 3273 C 308.24 0.678134 -4.45771 0
M  V30 3274 C 306.902 0.441929 -4.79166 0
M  V30 3275 C 309.254 0.0832243 -5.21134 0
M  V30 3276 C 306.582 -0.398833 -5.85343 0
M  V30 3277 C 308.934 -0.744935 -6.28199 0
M  V30 3278 C 307.598 -0.991107 -6.60101 0
M  V30 3279 H 306.868 0.286489 -0.683378 0
M  V30 3280 H 309.515 0.0439808 -1.91449 0
M  V30 3281 H 307.82 2.34599 -3.138 0
M  V30 3282 H 309.517 2.08218 -3.42705 0
M  V30 3283 H 306.107 0.872357 -4.19628 0
M  V30 3284 H 310.291 0.252847 -4.95655 0
M  V30 3285 H 305.547 -0.598405 -6.08465 0
M  V30 3286 H 309.721 -1.21271 -6.8576 0
M  V30 3287 H 307.348 -1.64437 -7.42202 0
M  V30 3288 N 308.923 1.53595 0.353017 0
M  V30 3289 C 309.833 1.83897 1.45667 0
M  V30 3290 C 310.849 0.728334 1.58023 0
M  V30 3291 O 312.025 1.01968 1.73679 0
M  V30 3292 C 309.09 2.03383 2.80778 0
M  V30 3293 C 308.151 3.27262 2.77845 0
M  V30 3294 C 307.384 3.45809 4.06512 0
M  V30 3295 O 307.607 2.68387 5.03314 0
M  V30 3296 O 306.541 4.39207 4.11559 0
M  V30 3297 H 310.367 2.77686 1.2298 0
M  V30 3298 H 307.952 1.39132 0.544308 0
M  V30 3299 H 309.834 2.17698 3.60812 0
M  V30 3300 H 308.509 1.12783 3.03417 0
M  V30 3301 H 307.416 3.18359 1.96465 0
M  V30 3302 H 308.749 4.17824 2.60161 0
M  V30 3303 N 310.401 -0.613514 1.45168 0
M  V30 3304 C 311.648 -1.37268 1.48875 0
M  V30 3305 C 311.976 -1.94077 0.128161 0
M  V30 3306 O 311.231 -1.75178 -0.872416 0
M  V30 3307 C 311.53 -2.54347 2.51083 0
M  V30 3308 C 311.196 -2.1572 3.95949 0
M  V30 3309 C 309.858 -2.04899 4.35396 0
M  V30 3310 C 312.21 -1.85485 4.87078 0
M  V30 3311 C 309.538 -1.62057 5.63875 0
M  V30 3312 C 311.89 -1.4413 6.15962 0
M  V30 3313 C 310.554 -1.31863 6.54346 0
M  V30 3314 H 309.824 -0.502299 0.544773 0
M  V30 3315 H 312.471 -0.694021 1.78481 0
M  V30 3316 H 310.776 -3.27524 2.15024 0
M  V30 3317 H 312.473 -3.12577 2.51191 0
M  V30 3318 H 309.063 -2.25066 3.64751 0
M  V30 3319 H 313.247 -1.92745 4.57343 0
M  V30 3320 H 308.503 -1.51177 5.92415 0
M  V30 3321 H 312.677 -1.19778 6.86022 0
M  V30 3322 H 310.304 -0.984392 7.538 0
M  V30 3323 N 311.879 -1.3236 -0.855495 0
M  V30 3324 C 312.829 -1.17809 -1.95205 0
M  V30 3325 C 313.813 -0.0852319 -1.60674 0
M  V30 3326 O 315.005 -0.311651 -1.74235 0
M  V30 3327 C 312.134 -0.902437 -3.31226 0
M  V30 3328 C 311.22 -2.03695 -3.7198 0
M  V30 3329 N 311.611 -3.28544 -3.84568 0
M  V30 3330 C 309.909 -1.93993 -4.016 0
M  V30 3331 C 310.61 -4.02847 -4.19629 0
M  V30 3332 N 309.586 -3.31138 -4.31102 0
M  V30 3333 H 313.388 -2.12462 -2.0307 0
M  V30 3334 H 310.902 -1.24127 -1.0472 0
M  V30 3335 H 312.899 -0.77915 -4.09554 0
M  V30 3336 H 311.559 0.0357267 -3.2468 0
M  V30 3337 H 312.57 -3.6349 -3.68911 0
M  V30 3338 H 309.247 -1.07733 -4.03361 0
M  V30 3339 H 310.637 -5.10506 -4.36845 0
M  V30 3340 N 313.357 1.07166 -1.15556 0
M  V30 3341 C 314.605 1.79443 -0.929764 0
M  V30 3342 C 314.926 1.87246 0.544414 0
M  V30 3343 O 314.196 1.37473 1.39564 0
M  V30 3344 H 312.776 0.664625 -0.341003 0
M  V30 3345 H 315.438 1.29499 -1.45657 0
M  V30 3346 H 314.534 2.81832 -1.34079 0
M  V30 3347 N 314.835 0.952656 1.25548 0
M  V30 3348 C 316.246 0.647392 1.75116 0
M  V30 3349 C 316.597 -0.837274 1.77438 0
M  V30 3350 O 315.722 -1.65525 1.39393 0
M  V30 3351 C 316.317 1.16845 3.18014 0
M  V30 3352 C 314.876 0.913382 3.6515 0
M  V30 3353 C 314.023 1.31265 2.44264 0
M  V30 3354 H 316.974 1.12968 1.11462 0
M  V30 3355 H 316.995 0.527606 3.76824 0
M  V30 3356 H 316.507 2.24902 3.16292 0
M  V30 3357 H 314.608 -0.152316 3.72289 0
M  V30 3358 H 314.721 1.54845 4.53387 0
M  V30 3359 H 313.085 0.731028 2.43984 0
M  V30 3360 H 313.868 2.40239 2.45234 0
M  V30 3361 N 316.313 -1.40141 0.720998 0
M  V30 3362 C 317.538 -2.05618 0.271258 0
M  V30 3363 C 317.963 -1.53978 -1.08039 0
M  V30 3364 O 317.321 -0.677463 -1.68167 0
M  V30 3365 C 317.369 -3.59609 0.267197 0
M  V30 3366 O 316.473 -4.05526 -0.749814 0
M  V30 3367 H 315.814 -0.651904 0.126162 0
M  V30 3368 H 318.344 -1.79439 0.982997 0
M  V30 3369 H 318.354 -4.0786 0.106744 0
M  V30 3370 H 317.029 -3.96559 1.25354 0
M  V30 3371 H 315.606 -3.68722 -0.556644 0
M  V30 3372 N 317.792 -0.46758 -1.50504 0
M  V30 3373 C 319.038 0.0808869 -2.03239 0
M  V30 3374 C 319.393 1.37721 -1.34353 0
M  V30 3375 O 318.686 1.86016 -0.459194 0
M  V30 3376 C 318.88 0.323995 -3.55928 0
M  V30 3377 C 318.709 -0.947215 -4.39611 0
M  V30 3378 C 317.479 -1.48951 -4.82848 0
M  V30 3379 C 319.677 -1.84166 -4.80195 0
M  V30 3380 N 317.659 -2.71011 -5.50842 0
M  V30 3381 C 319.03 -2.90815 -5.47564 0
M  V30 3382 C 321.085 -1.85246 -4.62156 0
M  V30 3383 C 319.788 -3.98529 -5.98805 0
M  V30 3384 C 321.814 -2.91914 -5.14335 0
M  V30 3385 C 321.176 -3.97282 -5.81676 0
M  V30 3386 H 317.275 -0.0103394 -0.781932 0
M  V30 3387 H 319.859 -0.635003 -1.84054 0
M  V30 3388 H 318.03 1.00892 -3.75067 0
M  V30 3389 H 319.762 0.866492 -3.95315 0
M  V30 3390 H 316.517 -1.03918 -4.62058 0
M  V30 3391 H 316.941 -3.32988 -5.89447 0
M  V30 3392 H 321.583 -1.05103 -4.09528 0
M  V30 3393 H 319.301 -4.79491 -6.50472 0
M  V30 3394 H 322.887 -2.93729 -5.0221 0
M  V30 3395 H 321.767 -4.78462 -6.21324 0
M  V30 3396 N 319.27 1.56325 -0.20005 0
M  V30 3397 C 320.51 1.99619 0.439519 0
M  V30 3398 C 320.874 1.08423 1.58456 0
M  V30 3399 O 322.075 1.40973 2.28867 0
M  V30 3400 C 320.346 3.46314 0.883258 0
M  V30 3401 S 321.905 4.11634 1.51997 0
M  V30 3402 H 318.723 0.697007 0.140363 0
M  V30 3403 H 321.325 1.93118 -0.304282 0
M  V30 3404 H 320.029 4.10381 0.0398967 0
M  V30 3405 H 319.56 3.56643 1.6604 0
M  V30 3406 H 321.575 4.09049 2.8088 0
M  V30 3407 N 320.748 -0.0735177 1.57428 0
M  V30 3408 C 321.678 -1.0879 2.06608 0
M  V30 3409 C 322.659 -1.40473 0.959237 0
M  V30 3410 O 323.844 -1.5013 1.23185 0
M  V30 3411 C 320.974 -2.40183 2.50857 0
M  V30 3412 C 319.928 -2.22858 3.65402 0
M  V30 3413 C 319.254 -3.59619 3.957 0
M  V30 3414 C 320.554 -1.65123 4.95511 0
M  V30 3415 H 322.248 -0.678673 2.91607 0
M  V30 3416 H 319.794 -0.325013 1.40284 0
M  V30 3417 H 321.747 -3.11437 2.83874 0
M  V30 3418 H 320.471 -2.83083 1.62885 0
M  V30 3419 H 319.13 -1.54045 3.32664 0
M  V30 3420 H 318.778 -4.00086 3.04861 0
M  V30 3421 H 318.478 -3.48866 4.72828 0
M  V30 3422 H 320.002 -4.32306 4.31212 0
M  V30 3423 H 321.416 -2.26241 5.26771 0
M  V30 3424 H 319.813 -1.65071 5.7695 0
M  V30 3425 H 320.883 -0.612559 4.81015 0
M  V30 3426 N 322.226 -1.5378 -0.344866 0
M  V30 3427 C 323.454 -1.74899 -1.10534 0
M  V30 3428 C 323.869 -0.487534 -1.82397 0
M  V30 3429 O 323.226 0.540741 -1.74305 0
M  V30 3430 C 323.277 -2.92822 -2.11984 0
M  V30 3431 O 322.998 -4.14089 -1.43044 0
M  V30 3432 C 324.499 -3.25982 -3.00417 0
M  V30 3433 H 321.719 -0.584426 -0.329678 0
M  V30 3434 H 324.263 -2.006 -0.397474 0
M  V30 3435 H 322.418 -2.69457 -2.78338 0
M  V30 3436 H 322.832 -4.80272 -2.10805 0
M  V30 3437 H 324.306 -4.11848 -3.67539 0
M  V30 3438 H 324.783 -2.42228 -3.66363 0
M  V30 3439 H 325.389 -3.51349 -2.39654 0
M  V30 3440 N 323.704 0.605807 -1.45491 0
M  V30 3441 C 325.115 1.18777 -1.44045 0
M  V30 3442 C 325.466 1.95471 -0.169001 0
M  V30 3443 O 324.591 2.0374 0.729324 0
M  V30 3444 C 325.186 2.16064 -2.60963 0
M  V30 3445 C 323.745 2.69633 -2.62631 0
M  V30 3446 C 322.892 1.45072 -2.36325 0
M  V30 3447 H 325.843 0.395017 -1.53705 0
M  V30 3448 H 325.864 2.9913 -2.35163 0
M  V30 3449 H 325.376 1.60217 -3.53486 0
M  V30 3450 H 323.477 3.29414 -1.74119 0
M  V30 3451 H 323.59 3.13944 -3.61906 0
M  V30 3452 H 321.954 1.74089 -1.85917 0
M  V30 3453 H 322.737 0.910899 -3.30995 0
M  V30 3454 N 325.182 1.32811 0.848464 0
M  V30 3455 C 326.145 1.22194 1.9391 0
M  V30 3456 C 327.145 0.143404 1.60159 0
M  V30 3457 O 328.335 0.394253 1.6968 0
M  V30 3458 C 325.467 0.88067 3.29328 0
M  V30 3459 H 326.66 2.19127 2.04752 0
M  V30 3460 H 324.213 1.16731 1.0394 0
M  V30 3461 H 324.948 -0.0865776 3.24184 0
M  V30 3462 H 324.733 1.66052 3.55203 0
M  V30 3463 H 326.223 0.830871 4.09251 0
M  V30 3464 N 326.66 -1.06551 1.16123 0
M  V30 3465 C 327.937 -1.76097 0.85142 0
M  V30 3466 C 328.317 -2.00802 -0.6513 0
M  V30 3467 O 327.665 -1.63302 -1.59827 0
M  V30 3468 C 327.875 -3.06384 1.67122 0
M  V30 3469 C 329.223 -3.80585 1.88255 0
M  V30 3470 O 330.247 -3.16218 1.63966 0
M  V30 3471 O 329.106 -4.96212 2.2899 0
M  V30 3472 H 326.2 -0.765102 0.313923 0
M  V30 3473 H 328.746 -1.12844 1.26745 0
M  V30 3474 H 327.518 -2.84071 2.69108 0
M  V30 3475 H 327.141 -3.77371 1.25206 0
M  V30 3476 N 328.138 -0.959301 -1.25041 0
M  V30 3477 C 329.554 -0.664474 -1.4511 0
M  V30 3478 C 329.754 0.776481 -1.85938 0
M  V30 3479 O 328.81 1.55128 -1.99227 0
M  V30 3480 C 330.123 -1.64139 -2.5195 0
M  V30 3481 C 331.671 -1.65309 -2.65786 0
M  V30 3482 C 332.146 -2.61777 -3.75815 0
M  V30 3483 N 333.637 -2.60169 -3.83231 0
M  V30 3484 C 334.372 -3.31489 -4.6787 0
M  V30 3485 N 333.868 -4.12298 -5.56761 0
M  V30 3486 N 335.661 -3.20354 -4.61876 0
M  V30 3487 H 327.812 -1.89043 -0.968332 0
M  V30 3488 H 330.075 -0.813408 -0.4869 0
M  V30 3489 H 329.781 -2.67086 -2.28819 0
M  V30 3490 H 329.655 -1.40756 -3.49954 0
M  V30 3491 H 332.042 -0.630778 -2.8828 0
M  V30 3492 H 332.123 -1.92753 -1.68167 0
M  V30 3493 H 331.767 -3.64137 -3.54071 0
M  V30 3494 H 331.697 -2.31616 -4.72929 0
M  V30 3495 H 334.188 -2.01507 -3.19692 0
M  V30 3496 H 334.501 -4.63625 -6.18281 0
M  V30 3497 H 332.846 -4.16395 -5.56454 0
M  V30 3498 H 336.037 -2.56692 -3.91442 0
M  V30 3499 H 336.21 -3.76201 -5.27614 0
M  V30 3500 N 329.616 1.39756 -0.72842 0
M  V30 3501 C 330.864 2.00248 -0.272946 0
M  V30 3502 C 331.185 1.58077 1.14178 0
M  V30 3503 O 330.455 0.826014 1.77634 0
M  V30 3504 H 329.035 0.740554 -0.0979247 0
M  V30 3505 H 331.697 1.70903 -0.936912 0
M  V30 3506 H 330.793 3.10495 -0.316142 0
M  V30 3507 N 331.094 0.475555 1.50254 0
M  V30 3508 C 332.024 -0.30611 2.31485 0
M  V30 3509 C 333.005 -0.986228 1.38591 0
M  V30 3510 O 334.19 -0.982541 1.67511 0
M  V30 3511 C 331.32 -1.38588 3.1845 0
M  V30 3512 C 330.274 -0.827115 4.19932 0
M  V30 3513 C 329.6 -2.00551 4.95665 0
M  V30 3514 C 330.9 0.16463 5.2204 0
M  V30 3515 H 332.594 0.371866 2.97082 0
M  V30 3516 H 330.14 0.180282 1.42867 0
M  V30 3517 H 332.093 -1.94023 3.74076 0
M  V30 3518 H 330.817 -2.09269 2.50747 0
M  V30 3519 H 329.476 -0.294702 3.65414 0
M  V30 3520 H 329.124 -2.6994 4.2443 0
M  V30 3521 H 328.824 -1.63784 5.64313 0
M  V30 3522 H 330.348 -2.56468 5.54127 0
M  V30 3523 H 331.762 -0.300699 5.72511 0
M  V30 3524 H 330.159 0.446813 5.98434 0
M  V30 3525 H 331.229 1.08905 4.72512 0
M  V30 3526 N 332.573 -1.56217 0.208337 0
M  V30 3527 C 333.813 -1.99849 -0.428927 0
M  V30 3528 C 334.177 -1.09262 -1.57879 0
M  V30 3529 O 335.378 -1.42185 -2.28116 0
M  V30 3530 C 333.649 -3.46777 -0.864879 0
M  V30 3531 S 335.208 -4.12434 -1.49811 0
M  V30 3532 H 332.026 -0.697742 -0.136665 0
M  V30 3533 H 334.628 -1.92953 0.314519 0
M  V30 3534 H 333.332 -4.10396 -0.0181326 0
M  V30 3535 H 332.863 -3.57518 -1.64147 0
M  V30 3536 H 334.878 -4.10532 -2.78707 0
M  V30 3537 N 334.051 0.0651679 -1.57465 0
M  V30 3538 C 335.467 0.420105 -1.53972 0
M  V30 3539 C 335.667 1.78782 -0.929474 0
M  V30 3540 O 334.723 2.46771 -0.534839 0
M  V30 3541 C 336.036 0.355084 -2.98596 0
M  V30 3542 C 337.584 0.434792 -3.09965 0
M  V30 3543 C 338.059 0.399609 -4.56253 0
M  V30 3544 N 339.55 0.459488 -4.60915 0
M  V30 3545 C 340.285 0.454584 -5.71595 0
M  V30 3546 N 339.781 0.404102 -6.9162 0
M  V30 3547 N 341.574 0.501635 -5.59857 0
M  V30 3548 H 333.725 -0.830328 -1.95498 0
M  V30 3549 H 335.988 -0.312244 -0.895102 0
M  V30 3550 H 335.694 -0.583357 -3.46828 0
M  V30 3551 H 335.568 1.16275 -3.58831 0
M  V30 3552 H 337.955 1.36366 -2.61703 0
M  V30 3553 H 338.036 -0.40157 -2.52628 0
M  V30 3554 H 337.68 -0.525436 -5.05175 0
M  V30 3555 H 337.61 1.25359 -5.11461 0
M  V30 3556 H 340.101 0.502482 -3.74544 0
M  V30 3557 H 340.414 0.404468 -7.71741 0
M  V30 3558 H 338.759 0.37069 -6.94011 0
M  V30 3559 H 341.95 0.538812 -4.64989 0
M  V30 3560 H 342.123 0.494345 -6.46112 0
M  V30 3561 N 335.529 1.53961 0.336706 0
M  V30 3562 C 336.492 1.81724 1.39675 0
M  V30 3563 C 337.492 0.688532 1.45313 0
M  V30 3564 O 338.682 0.956829 1.45569 0
M  V30 3565 C 335.814 1.96543 2.78538 0
M  V30 3566 H 337.007 2.76424 1.16318 0
M  V30 3567 H 334.56 1.45478 0.571474 0
M  V30 3568 H 335.295 1.0401 3.07168 0
M  V30 3569 H 335.08 2.78665 2.75841 0
M  V30 3570 H 336.57 2.19516 3.5525 0
M  V30 3571 N 337.007 -0.598083 1.45811 0
M  V30 3572 C 337.955 -1.72932 1.55555 0
M  V30 3573 C 338.949 -1.63984 0.424921 0
M  V30 3574 O 340.155 -1.69663 0.601205 0
M  V30 3575 H 336.53 -0.571489 0.488779 0
M  V30 3576 H 338.501 -1.61842 2.50699 0
M  V30 3577 C 337.25 -3.11318 1.54843 0
M  V30 3578 H 336.573 -3.18867 2.41172 0
M  V30 3579 H 338.013 -3.90274 1.65717 0
M  V30 3580 C 336.472 -3.3578 0.274427 0
M  V30 3581 O 337.002 -3.9654 -0.641778 0
M  V30 3582 N 335.208 -2.90119 0.167139 0
M  V30 3583 H 334.755 -2.40855 0.913596 0
M  V30 3584 H 334.713 -3.0686 -0.684435 0
M  V30 3585 N 338.485 -1.33259 -0.841409 0
M  V30 3586 C 339.395 -1.25332 -1.98316 0
M  V30 3587 C 340.411 -0.164364 -1.73222 0
M  V30 3588 O 341.587 -0.387486 -1.97637 0
M  V30 3589 C 338.652 -0.990078 -3.32262 0
M  V30 3590 C 337.713 -2.16879 -3.70489 0
M  V30 3591 C 336.946 -1.91801 -4.98044 0
M  V30 3592 O 337.169 -0.867075 -5.63771 0
M  V30 3593 O 336.103 -2.78267 -5.33714 0
M  V30 3594 H 339.929 -2.21344 -2.07944 0
M  V30 3595 H 337.514 -1.1328 -0.974058 0
M  V30 3596 H 339.396 -0.860321 -4.12524 0
M  V30 3597 H 338.071 -0.0602155 -3.23644 0
M  V30 3598 H 336.978 -2.35407 -2.90748 0
M  V30 3599 H 338.311 -3.0819 -3.8377 0
M  V30 3600 N 339.963 1.05934 -1.16686 0
M  V30 3601 C 340.911 2.15603 -0.872817 0
M  V30 3602 C 341.905 1.68647 0.159576 0
M  V30 3603 O 343.111 1.79995 0.0132125 0
M  V30 3604 H 339.486 0.703885 -0.264671 0
M  V30 3605 H 341.457 2.37613 -1.80507 0
M  V30 3606 C 340.206 3.45457 -0.394344 0
M  V30 3607 H 339.529 3.81984 -1.18019 0
M  V30 3608 H 340.969 4.2339 -0.227408 0
M  V30 3609 C 339.428 3.25021 0.88673 0
M  V30 3610 O 339.958 3.50906 1.95519 0
M  V30 3611 N 338.164 2.78437 0.831925 0
M  V30 3612 H 337.711 2.57572 -0.0377619 0
M  V30 3613 H 337.669 2.65144 1.68956 0
M  V30 3614 N 341.441 0.965919 1.2453 0
M  V30 3615 C 342.857 0.67216 1.44756 0
M  V30 3616 C 343.057 -0.766609 1.86347 0
M  V30 3617 O 342.113 -1.5407 2.00047 0
M  V30 3618 C 343.426 1.65473 2.51076 0
M  V30 3619 C 344.974 1.66716 2.64905 0
M  V30 3620 C 345.449 2.63766 3.74421 0
M  V30 3621 N 346.94 2.62198 3.81846 0
M  V30 3622 C 347.675 3.33966 4.66106 0
M  V30 3623 N 347.171 4.15245 5.54566 0
M  V30 3624 N 348.964 3.22799 4.60171 0
M  V30 3625 H 341.115 1.89553 0.958293 0
M  V30 3626 H 343.378 0.815979 0.482579 0
M  V30 3627 H 343.084 2.68296 2.27399 0
M  V30 3628 H 342.958 1.4261 3.49202 0
M  V30 3629 H 345.345 0.646057 2.87941 0
M  V30 3630 H 345.426 1.93642 1.67142 0
M  V30 3631 H 345.07 3.6601 3.52135 0
M  V30 3632 H 345 2.34121 4.71694 0
M  V30 3633 H 347.491 2.032 3.18619 0
M  V30 3634 H 347.804 4.66898 6.15814 0
M  V30 3635 H 346.149 4.1934 5.54237 0
M  V30 3636 H 349.34 2.58764 3.90075 0
M  V30 3637 H 349.513 3.78994 5.25612 0
M  V30 3638 N 342.919 -1.39368 0.735821 0
M  V30 3639 C 344.166 -2.00497 0.284123 0
M  V30 3640 C 344.494 -1.58387 -1.12889 0
M  V30 3641 O 343.749 -0.804359 -1.78406 0
M  V30 3642 C 344.048 -3.5583 0.334651 0
M  V30 3643 C 343.714 -4.17593 1.7008 0
M  V30 3644 C 342.376 -4.34176 2.07472 0
M  V30 3645 C 344.728 -4.51848 2.59775 0
M  V30 3646 C 342.056 -4.82304 3.34065 0
M  V30 3647 C 344.408 -5.01384 3.85741 0
M  V30 3648 C 343.072 -5.16175 4.23225 0
M  V30 3649 H 342.342 -0.73367 0.103968 0
M  V30 3650 H 344.989 -1.66683 0.942825 0
M  V30 3651 H 343.294 -3.89674 -0.407625 0
M  V30 3652 H 344.991 -4.00986 -0.0329927 0
M  V30 3653 H 341.581 -4.05087 1.40008 0
M  V30 3654 H 345.765 -4.38653 2.32157 0
M  V30 3655 H 341.021 -4.91941 3.63049 0
M  V30 3656 H 345.195 -5.26863 4.55399 0
M  V30 3657 H 342.822 -5.5323 5.21384 0
M  V30 3658 N 344.397 -0.483516 -1.5 0
M  V30 3659 C 345.627 0.0643896 -2.065 0
M  V30 3660 C 346.035 1.32949 -1.34615 0
M  V30 3661 O 345.378 1.79003 -0.412756 0
M  V30 3662 C 345.44 0.405983 -3.572 0
M  V30 3663 C 345.104 -0.758875 -4.50655 0
M  V30 3664 C 346.101 -1.64445 -4.93208 0
M  V30 3665 C 343.786 -0.952725 -4.93182 0
M  V30 3666 C 345.78 -2.70818 -5.77006 0
M  V30 3667 C 343.467 -2.01966 -5.76761 0
M  V30 3668 C 344.465 -2.89574 -6.18576 0
M  V30 3669 O 344.153 -3.94429 -7.00486 0
M  V30 3670 H 343.885 -0.00934786 -0.675935 0
M  V30 3671 H 346.439 -0.674959 -1.93993 0
M  V30 3672 H 344.669 1.19869 -3.67652 0
M  V30 3673 H 346.358 0.890433 -3.96013 0
M  V30 3674 H 347.124 -1.50643 -4.61012 0
M  V30 3675 H 343.003 -0.280247 -4.60147 0
M  V30 3676 H 346.547 -3.3923 -6.09565 0
M  V30 3677 H 342.444 -2.1577 -6.0837 0
M  V30 3678 H 343.212 -3.91568 -7.1876 0
M  V30 3679 N 345.875 1.56104 -0.216619 0
M  V30 3680 C 347.105 2.02269 0.420802 0
M  V30 3681 C 347.513 1.09575 1.5424 0
M  V30 3682 O 346.856 0.0967308 1.83445 0
M  V30 3683 C 346.918 3.44784 1.01806 0
M  V30 3684 C 346.582 4.56988 0.0325154 0
M  V30 3685 C 347.579 5.14225 -0.766055 0
M  V30 3686 C 345.264 5.02228 -0.0848092 0
M  V30 3687 C 347.258 6.15169 -1.6687 0
M  V30 3688 C 344.945 6.03011 -0.990994 0
M  V30 3689 C 345.943 6.59357 -1.78149 0
M  V30 3690 O 345.631 7.58179 -2.67245 0
M  V30 3691 H 345.363 0.667353 0.107776 0
M  V30 3692 H 347.917 2.02747 -0.329034 0
M  V30 3693 H 346.147 3.41359 1.81689 0
M  V30 3694 H 347.836 3.74626 1.56237 0
M  V30 3695 H 348.602 4.80126 -0.685836 0
M  V30 3696 H 344.481 4.58054 0.520349 0
M  V30 3697 H 348.025 6.59076 -2.28615 0
M  V30 3698 H 343.922 6.36532 -1.07225 0
M  V30 3699 H 344.69 7.75682 -2.61265 0
M  V30 3700 N 347.353 -0.0568162 1.57498 0
M  V30 3701 C 348.301 -1.08452 2.05769 0
M  V30 3702 C 349.295 -1.39164 0.965903 0
M  V30 3703 O 350.501 -1.38395 1.15095 0
M  V30 3704 H 346.876 -0.367148 0.656282 0
M  V30 3705 H 348.847 -0.651368 2.91204 0
M  V30 3706 C 347.596 -2.38543 2.52968 0
M  V30 3707 H 346.919 -2.15765 3.36579 0
M  V30 3708 H 348.359 -3.08863 2.90481 0
M  V30 3709 C 346.818 -3.05562 1.41893 0
M  V30 3710 O 347.348 -3.94262 0.769442 0
M  V30 3711 N 345.554 -2.6643 1.16032 0
M  V30 3712 H 345.101 -1.94387 1.6903 0
M  V30 3713 H 345.059 -3.11593 0.419219 0
M  V30 3714 N 348.832 -1.54138 -0.328536 0
M  V30 3715 C 350.057 -1.76378 -1.09112 0
M  V30 3716 C 350.482 -0.508596 -1.81094 0
M  V30 3717 O 349.84 0.539598 -1.73084 0
M  V30 3718 C 349.888 -2.95358 -2.06872 0
M  V30 3719 O 348.992 -2.66556 -3.14677 0
M  V30 3720 H 348.333 -0.584614 -0.314838 0
M  V30 3721 H 350.863 -2.01146 -0.374348 0
M  V30 3722 H 350.873 -3.22566 -2.4983 0
M  V30 3723 H 349.548 -3.86385 -1.5388 0
M  V30 3724 H 348.125 -2.50282 -2.7643 0
M  V30 3725 N 350.31 0.590341 -1.46126 0
M  V30 3726 C 351.556 1.35082 -1.51264 0
M  V30 3727 C 351.889 1.93534 -0.160711 0
M  V30 3728 O 351.164 1.76045 0.826956 0
M  V30 3729 C 351.447 2.48588 -2.6053 0
M  V30 3730 C 351.3 1.95221 -4.05227 0
M  V30 3731 C 352.619 3.50662 -2.6594 0
M  V30 3732 H 349.738 0.489803 -0.550692 0
M  V30 3733 H 352.38 0.663887 -1.78024 0
M  V30 3734 H 350.53 3.07186 -2.37843 0
M  V30 3735 H 352.202 1.41139 -4.39178 0
M  V30 3736 H 350.445 1.26101 -4.15068 0
M  V30 3737 H 351.116 2.77121 -4.77397 0
M  V30 3738 H 353.592 3.01934 -2.86313 0
M  V30 3739 H 352.468 4.27551 -3.44226 0
M  V30 3740 H 352.729 4.07399 -1.71694 0
M  V30 3741 N 351.788 1.33704 0.83433 0
M  V30 3742 C 353.037 1.24763 1.58484 0
M  V30 3743 C 353.35 -0.183775 1.94735 0
M  V30 3744 O 354.556 -0.395234 2.68608 0
M  V30 3745 C 353.012 2.18638 2.85876 0
M  V30 3746 C 352.62 3.66974 2.56971 0
M  V30 3747 C 354.364 2.18581 3.63899 0
M  V30 3748 C 352.271 4.5275 3.80488 0
M  V30 3749 H 351.201 0.463425 0.594772 0
M  V30 3750 H 353.852 1.58797 0.919551 0
M  V30 3751 H 352.234 1.77542 3.5397 0
M  V30 3752 H 353.408 4.16538 1.9706 0
M  V30 3753 H 351.723 3.69366 1.92244 0
M  V30 3754 H 354.32 2.79894 4.55591 0
M  V30 3755 H 354.663 1.18207 3.99165 0
M  V30 3756 H 355.196 2.58062 3.02735 0
M  V30 3757 H 351.935 5.54017 3.5035 0
M  V30 3758 H 351.455 4.07927 4.39722 0
M  V30 3759 H 353.134 4.66784 4.4802 0
M  V30 3760 N 353.266 -1.05314 1.17247 0
M  V30 3761 C 354.514 -1.77941 0.958194 0
M  V30 3762 C 354.835 -1.88089 -0.514556 0
M  V30 3763 O 354.105 -1.39676 -1.37359 0
M  V30 3764 H 352.685 -0.659116 0.351533 0
M  V30 3765 H 355.347 -1.27166 1.47699 0
M  V30 3766 H 354.443 -2.79663 1.38546 0
M  V30 3767 N 354.744 -0.972509 -1.24016 0
M  V30 3768 C 355.691 -0.505969 -2.25186 0
M  V30 3769 C 356.661 0.451009 -1.5986 0
M  V30 3770 O 357.846 0.360307 -1.87367 0
M  V30 3771 C 354.986 0.193089 -3.44559 0
M  V30 3772 C 354.099 -0.803222 -4.24467 0
M  V30 3773 C 353.234 -0.0797793 -5.3114 0
M  V30 3774 C 352.273 -1.06583 -6.02749 0
M  V30 3775 N 351.41 -0.372074 -7.01113 0
M  V30 3776 H 356.25 -1.37351 -2.64459 0
M  V30 3777 H 353.787 -0.688419 -1.29997 0
M  V30 3778 H 355.745 0.615125 -4.1264 0
M  V30 3779 H 354.375 1.02455 -3.06109 0
M  V30 3780 H 353.427 -1.34368 -3.55878 0
M  V30 3781 H 354.739 -1.55494 -4.73944 0
M  V30 3782 H 353.893 0.400015 -6.0538 0
M  V30 3783 H 352.632 0.704597 -4.82583 0
M  V30 3784 H 351.637 -1.55645 -5.27309 0
M  V30 3785 H 352.862 -1.85074 -6.53395 0
M  V30 3786 H 350.808 0.393238 -6.5482 0
M  V30 3787 H 350.725 -1.06258 -7.48495 0
M  V30 3788 H 351.993 0.0855932 -7.79453 0
M  V30 3789 N 356.222 1.38976 -0.743202 0
M  V30 3790 C 357.462 2.02193 -0.29954 0
M  V30 3791 C 357.826 1.5771 1.09506 0
M  V30 3792 O 359.027 2.13184 1.63726 0
M  V30 3793 C 357.298 3.55077 -0.406822 0
M  V30 3794 S 358.857 4.38778 -0.0442109 0
M  V30 3795 H 355.675 0.701335 -0.116836 0
M  V30 3796 H 358.277 1.69651 -0.971529 0
M  V30 3797 H 356.981 3.84942 -1.42295 0
M  V30 3798 H 356.512 3.92383 0.282707 0
M  V30 3799 H 358.527 4.82222 1.16947 0
M  V30 3800 N 357.7 0.491464 1.49741 0
M  V30 3801 C 359.116 0.146835 1.58923 0
M  V30 3802 C 359.316 -1.34804 1.49767 0
M  V30 3803 O 358.372 -2.12317 1.36667 0
M  V30 3804 C 359.685 0.715157 2.92072 0
M  V30 3805 C 361.233 0.680407 3.05515 0
M  V30 3806 C 361.708 1.22663 4.41269 0
M  V30 3807 N 363.199 1.18691 4.47735 0
M  V30 3808 C 363.934 1.57984 5.51207 0
M  V30 3809 N 363.43 2.04824 6.6183 0
M  V30 3810 N 365.223 1.49459 5.41866 0
M  V30 3811 H 357.374 1.46347 1.53936 0
M  V30 3812 H 359.637 0.606453 0.728642 0
M  V30 3813 H 359.343 1.76317 3.04311 0
M  V30 3814 H 359.217 0.17018 3.76816 0
M  V30 3815 H 361.604 -0.358743 2.92911 0
M  V30 3816 H 361.685 1.26242 2.22478 0
M  V30 3817 H 361.329 2.26451 4.54623 0
M  V30 3818 H 361.259 0.620637 5.2293 0
M  V30 3819 H 363.75 0.843605 3.68364 0
M  V30 3820 H 364.063 2.32901 7.3687 0
M  V30 3821 H 362.408 2.08791 6.62896 0
M  V30 3822 H 365.599 1.12692 4.54333 0
M  V30 3823 H 365.772 1.80406 6.22381 0
M  V30 3824 N 359.178 -1.55987 0.224894 0
M  V30 3825 C 360.589 -1.84553 -0.282345 0
M  V30 3826 C 360.94 -1.14634 -1.59227 0
M  V30 3827 O 360.065 -0.417155 -2.12341 0
M  V30 3828 C 360.66 -3.348 -0.519062 0
M  V30 3829 C 359.219 -3.63671 -0.970604 0
M  V30 3830 C 358.366 -2.77277 -0.0355261 0
M  V30 3831 H 361.317 -1.52245 0.448006 0
M  V30 3832 H 361.338 -3.55187 -1.36463 0
M  V30 3833 H 360.85 -3.8566 0.43449 0
M  V30 3834 H 358.951 -3.1827 -1.9374 0
M  V30 3835 H 359.064 -4.71631 -0.842698 0
M  V30 3836 H 357.428 -2.48846 -0.542927 0
M  V30 3837 H 358.211 -3.30937 0.913003 0
M  V30 3838 N 360.656 0.0484629 -1.57525 0
M  V30 3839 C 361.903 0.743125 -1.88372 0
M  V30 3840 C 362.231 1.76383 -0.819715 0
M  V30 3841 O 361.486 1.94855 0.181659 0
M  V30 3842 C 361.785 1.46632 -3.25935 0
M  V30 3843 C 361.451 0.583427 -4.4711 0
M  V30 3844 C 360.113 0.340191 -4.79996 0
M  V30 3845 C 362.465 -0.0273345 -5.21193 0
M  V30 3846 C 359.793 -0.522903 -5.84365 0
M  V30 3847 C 362.145 -0.878017 -6.26477 0
M  V30 3848 C 360.809 -1.1309 -6.5785 0
M  V30 3849 H 360.079 0.271929 -0.689301 0
M  V30 3850 H 362.726 0.00336166 -1.915 0
M  V30 3851 H 361.031 2.2789 -3.18706 0
M  V30 3852 H 362.728 2.00902 -3.47044 0
M  V30 3853 H 359.318 0.783151 -4.21384 0
M  V30 3854 H 363.502 0.147654 -4.9608 0
M  V30 3855 H 358.758 -0.727335 -6.07058 0
M  V30 3856 H 362.932 -1.35789 -6.83033 0
M  V30 3857 H 360.559 -1.80144 -7.38547 0
M  V30 3858 N 362.134 1.5431 0.320358 0
M  V30 3859 C 363.081 1.83918 1.39438 0
M  V30 3860 C 364.051 0.686525 1.51248 0
M  V30 3861 O 365.236 0.933269 1.66417 0
M  V30 3862 C 362.376 2.075 2.75749 0
M  V30 3863 C 361.489 3.35177 2.72544 0
M  V30 3864 C 360.624 3.48704 4.00723 0
M  V30 3865 C 359.663 4.70244 3.91838 0
M  V30 3866 N 358.8 4.80679 5.11754 0
M  V30 3867 H 363.64 2.75544 1.13489 0
M  V30 3868 H 361.177 1.36459 0.549309 0
M  V30 3869 H 363.135 2.19166 3.54996 0
M  V30 3870 H 361.765 1.19163 3 0
M  V30 3871 H 360.817 3.32233 1.85271 0
M  V30 3872 H 362.129 4.24534 2.61863 0
M  V30 3873 H 361.283 3.59928 4.88402 0
M  V30 3874 H 360.022 2.57445 4.14214 0
M  V30 3875 H 359.027 4.59072 3.02544 0
M  V30 3876 H 360.252 5.6289 3.7991 0
M  V30 3877 H 358.198 3.92337 5.25745 0
M  V30 3878 H 358.115 5.64007 5.0342 0
M  V30 3879 H 359.383 4.96239 6.01138 0
M  V30 3880 N 363.613 -0.582584 1.46437 0
M  V30 3881 C 364.843 -1.36484 1.55099 0
M  V30 3882 C 365.251 -1.88233 0.191056 0
M  V30 3883 O 364.594 -1.6429 -0.821858 0
M  V30 3884 C 364.656 -2.588 2.49525 0
M  V30 3885 C 364.32 -2.28517 3.95764 0
M  V30 3886 C 365.317 -1.87346 4.84972 0
M  V30 3887 C 363.002 -2.40658 4.40896 0
M  V30 3888 C 364.996 -1.5871 6.17325 0
M  V30 3889 C 362.683 -2.11635 5.73284 0
M  V30 3890 C 363.681 -1.70725 6.61318 0
M  V30 3891 O 363.369 -1.42057 7.91249 0
M  V30 3892 H 363.101 -0.423297 0.527063 0
M  V30 3893 H 365.655 -0.715188 1.92547 0
M  V30 3894 H 363.885 -3.26571 2.07095 0
M  V30 3895 H 365.574 -3.20868 2.48593 0
M  V30 3896 H 366.34 -1.77481 4.5136 0
M  V30 3897 H 362.219 -2.71463 3.72598 0
M  V30 3898 H 365.763 -1.26704 6.85997 0
M  V30 3899 H 361.66 -2.21124 6.06444 0
M  V30 3900 H 362.428 -1.55901 8.03515 0
M  V30 3901 N 365.091 -1.34144 -0.827227 0
M  V30 3902 C 366.316 -1.29476 -1.62021 0
M  V30 3903 C 366.741 0.129292 -1.87655 0
M  V30 3904 O 366.099 1.08967 -1.449 0
M  V30 3905 C 366.147 -2.08702 -2.94068 0
M  V30 3906 O 365.251 -1.45359 -3.85933 0
M  V30 3907 H 364.592 -0.444881 -0.492927 0
M  V30 3908 H 367.122 -1.76882 -1.02829 0
M  V30 3909 H 367.132 -2.19898 -3.43669 0
M  V30 3910 H 365.807 -3.12241 -2.74734 0
M  V30 3911 H 364.384 -1.42879 -3.44442 0
M  V30 3912 N 366.569 1.04691 -1.17803 0
M  V30 3913 C 367.817 1.7743 -0.967617 0
M  V30 3914 C 368.138 1.88359 0.504574 0
M  V30 3915 O 367.408 1.40402 1.36617 0
M  V30 3916 H 365.988 0.657242 -0.355024 0
M  V30 3917 H 368.65 1.2638 -1.48371 0
M  V30 3918 H 367.746 2.78924 -1.40027 0
M  V30 3919 N 368.047 0.979072 1.23499 0
M  V30 3920 C 369.287 0.655228 1.93613 0
M  V30 3921 C 369.651 -0.796336 1.74707 0
M  V30 3922 O 370.852 -1.23094 2.38959 0
M  V30 3923 C 369.123 1.03337 3.42135 0
M  V30 3924 S 370.682 0.825793 4.3096 0
M  V30 3925 H 367.5 0.240004 0.669267 0
M  V30 3926 H 370.102 1.25843 1.49612 0
M  V30 3927 H 368.806 2.08646 3.53405 0
M  V30 3928 H 368.337 0.421397 3.91137 0
M  V30 3929 H 370.352 -0.290991 4.95346 0
M  V30 3930 N 369.525 -1.3858 0.750561 0
M  V30 3931 C 370.773 -1.99789 0.30477 0
M  V30 3932 C 371.094 -1.59874 -1.11649 0
M  V30 3933 O 370.364 -0.85417 -1.76297 0
M  V30 3934 H 368.944 -0.738902 0.109694 0
M  V30 3935 H 371.606 -1.69391 0.963983 0
M  V30 3936 H 370.702 -3.09952 0.365499 0
M  V30 3937 N 371.003 -0.499398 -1.49478 0
M  V30 3938 C 372.251 0.0455996 -2.02049 0
M  V30 3939 C 372.572 1.37633 -1.38138 0
M  V30 3940 O 371.842 1.8842 -0.536166 0
M  V30 3941 H 370.422 0.0198416 -0.746736 0
M  V30 3942 H 373.084 -0.656274 -1.83519 0
M  V30 3943 H 372.18 0.176445 -3.11601 0
M  V30 3944 N 372.481 1.55866 -0.233164 0
M  V30 3945 C 373.429 2.22176 0.68851 0
M  V30 3946 C 374.423 1.20487 1.19076 0
M  V30 3947 O 375.629 1.38536 1.14925 0
M  V30 3948 H 372.004 0.712511 0.240483 0
M  V30 3949 H 373.975 2.98212 0.105935 0
M  V30 3950 C 372.724 2.92446 1.88071 0
M  V30 3951 H 372.047 3.70458 1.50337 0
M  V30 3952 H 373.487 3.42226 2.50314 0
M  V30 3953 C 371.946 1.95555 2.74335 0
M  V30 3954 O 372.476 1.47986 3.73447 0
M  V30 3955 N 370.682 1.62953 2.40613 0
M  V30 3956 H 370.229 2.01831 1.60069 0
M  V30 3957 H 370.187 0.983886 2.98609 0
M  V30 3958 N 373.959 -0.0401083 1.57549 0
M  V30 3959 C 374.869 -1.06133 2.0922 0
M  V30 3960 C 375.885 -1.40356 1.0284 0
M  V30 3961 O 377.061 -1.49897 1.34509 0
M  V30 3962 C 374.126 -2.34658 2.55218 0
M  V30 3963 C 373.187 -2.07117 3.76033 0
M  V30 3964 C 372.42 -3.29514 4.19829 0
M  V30 3965 O 372.643 -4.39794 3.63232 0
M  V30 3966 O 371.577 -3.15863 5.12362 0
M  V30 3967 H 375.403 -0.652244 2.96613 0
M  V30 3968 H 372.988 -0.256368 1.47184 0
M  V30 3969 H 374.87 -3.10239 2.85184 0
M  V30 3970 H 373.545 -2.74883 1.70941 0
M  V30 3971 H 372.452 -1.29139 3.51104 0
M  V30 3972 H 373.785 -1.71754 4.61261 0
M  V30 3973 N 375.437 -1.54477 -0.31217 0
M  V30 3974 C 376.385 -1.85395 -1.40469 0
M  V30 3975 C 377.379 -0.726749 -1.53019 0
M  V30 3976 O 378.585 -0.910582 -1.55269 0
M  V30 3977 H 374.96 -0.587845 -0.46898 0
M  V30 3978 H 376.931 -2.76736 -1.11623 0
M  V30 3979 C 375.68 -2.10811 -2.76503 0
M  V30 3980 H 375.003 -2.97014 -2.67625 0
M  V30 3981 H 376.443 -2.3639 -3.51988 0
M  V30 3982 C 374.902 -0.903165 -3.24568 0
M  V30 3983 O 375.432 -0.118085 -4.01526 0
M  V30 3984 N 373.638 -0.711634 -2.81752 0
M  V30 3985 H 373.185 -1.35171 -2.19286 0
M  V30 3986 H 373.143 0.0930473 -3.14262 0
M  V30 3987 N 376.915 0.57481 -1.46744 0
M  V30 3988 C 377.863 1.70435 -1.58286 0
M  V30 3989 C 378.857 1.63287 -0.450956 0
M  V30 3990 O 380.063 1.68685 -0.628121 0
M  V30 3991 H 376.438 0.56364 -0.497809 0
M  V30 3992 H 378.409 1.57833 -2.53242 0
M  V30 3993 C 377.158 3.08815 -1.59776 0
M  V30 3994 H 376.481 3.1499 -2.46214 0
M  V30 3995 H 377.921 3.87588 -1.71905 0
M  V30 3996 C 376.38 3.35301 -0.327812 0
M  V30 3997 O 376.91 3.97511 0.57861 0
M  V30 3998 N 375.116 2.89816 -0.213274 0
M  V30 3999 H 374.663 2.39371 -0.951798 0
M  V30 4000 H 374.621 3.0791 0.63553 0
M  V30 4001 N 378.394 1.34581 0.820102 0
M  V30 4002 C 379.641 1.27096 1.57648 0
M  V30 4003 C 379.969 -0.158317 1.93855 0
M  V30 4004 O 379.224 -1.12028 1.60463 0
M  V30 4005 C 379.523 2.10997 2.8847 0
M  V30 4006 C 379.189 3.59966 2.71543 0
M  V30 4007 C 377.851 4.00575 2.66634 0
M  V30 4008 C 380.203 4.54548 2.55021 0
M  V30 4009 C 377.531 5.33953 2.43128 0
M  V30 4010 C 379.883 5.88109 2.33047 0
M  V30 4011 C 378.547 6.27878 2.26552 0
M  V30 4012 H 377.817 0.465078 0.576874 0
M  V30 4013 H 380.464 1.6635 0.948671 0
M  V30 4014 H 378.769 1.6458 3.55557 0
M  V30 4015 H 380.466 2.0255 3.46084 0
M  V30 4016 H 377.056 3.27733 2.76205 0
M  V30 4017 H 381.24 4.24069 2.57835 0
M  V30 4018 H 376.496 5.63781 2.3656 0
M  V30 4019 H 380.67 6.60985 2.19251 0
M  V30 4020 H 378.297 7.31162 2.081 0
M  V30 4021 N 379.872 -1.04064 1.18357 0
M  V30 4022 C 381.1 -1.80916 1.00384 0
M  V30 4023 C 381.515 -1.83414 -0.447738 0
M  V30 4024 O 380.872 -1.26962 -1.31099 0
M  V30 4025 C 380.923 -3.26516 1.55144 0
M  V30 4026 O 380.644 -3.2424 2.94618 0
M  V30 4027 C 382.145 -4.20013 1.41789 0
M  V30 4028 H 379.365 -0.569728 0.354474 0
M  V30 4029 H 381.909 -1.31151 1.56906 0
M  V30 4030 H 380.064 -3.73512 1.02798 0
M  V30 4031 H 380.478 -4.15452 3.20156 0
M  V30 4032 H 381.952 -5.20111 1.84901 0
M  V30 4033 H 382.429 -4.37667 0.36661 0
M  V30 4034 H 383.035 -3.78881 1.93207 0
M  V30 4035 N 381.35 -0.985608 -1.22978 0
M  V30 4036 C 382.575 -0.675254 -1.961 0
M  V30 4037 C 383 0.752154 -1.72407 0
M  V30 4038 O 382.358 1.5131 -0.998751 0
M  V30 4039 C 382.406 -0.977899 -3.47087 0
M  V30 4040 O 381.51 -0.072685 -4.12336 0
M  V30 4041 H 380.851 -0.253443 -0.613728 0
M  V30 4042 H 383.381 -1.32061 -1.56272 0
M  V30 4043 H 383.391 -0.916739 -3.97567 0
M  V30 4044 H 382.066 -2.01807 -3.63657 0
M  V30 4045 H 380.643 -0.188703 -3.72422 0
M  V30 4046 N 382.828 1.3818 -0.7579 0
M  V30 4047 C 383.775 2.30416 -0.133057 0
M  V30 4048 C 384.745 1.50398 0.704957 0
M  V30 4049 O 385.93 1.79014 0.660192 0
M  V30 4050 C 383.07 3.36834 0.750813 0
M  V30 4051 C 382.183 4.31879 -0.102297 0
M  V30 4052 C 381.318 5.25368 0.784979 0
M  V30 4053 C 380.357 6.12058 -0.0715046 0
M  V30 4054 N 379.494 6.97832 0.772972 0
M  V30 4055 H 384.334 2.83274 -0.925186 0
M  V30 4056 H 381.871 1.39461 -0.467866 0
M  V30 4057 H 383.829 3.97145 1.27794 0
M  V30 4058 H 382.459 2.85374 1.50868 0
M  V30 4059 H 381.511 3.72991 -0.747095 0
M  V30 4060 H 382.823 4.92921 -0.763552 0
M  V30 4061 H 381.977 5.90818 1.37911 0
M  V30 4062 H 380.716 4.64703 1.47996 0
M  V30 4063 H 379.721 5.456 -0.678272 0
M  V30 4064 H 380.946 6.74793 -0.763606 0
M  V30 4065 H 378.892 6.3971 1.45282 0
M  V30 4066 H 378.809 7.55812 0.168709 0
M  V30 4067 H 380.077 7.67687 1.35194 0
M  V30 4068 N 384.306 0.507319 1.49211 0
M  V30 4069 C 385.238 -0.304532 2.27168 0
M  V30 4070 C 386.251 -0.924956 1.33972 0
M  V30 4071 O 387.44 -0.807227 1.59205 0
M  V30 4072 C 384.54 -1.44431 3.06583 0
M  V30 4073 C 383.713 -0.930026 4.27398 0
M  V30 4074 C 382.772 -1.94817 4.88807 0
M  V30 4075 O 381.798 -1.51418 5.4869 0
M  V30 4076 N 383 -3.279 4.79022 0
M  V30 4077 H 385.765 0.36395 2.97482 0
M  V30 4078 H 383.326 0.340249 1.58284 0
M  V30 4079 H 385.318 -2.12311 3.44537 0
M  V30 4080 H 383.888 -2.01684 2.38835 0
M  V30 4081 H 383.108 -0.0759244 3.94127 0
M  V30 4082 H 384.396 -0.564932 5.05654 0
M  V30 4083 H 383.794 -3.65843 4.3148 0
M  V30 4084 H 382.351 -3.91476 5.21142 0
M  V30 4085 N 385.784 -1.5574 0.241426 0
M  V30 4086 C 386.694 -2.2479 -0.671305 0
M  V30 4087 C 387.71 -1.26217 -1.19772 0
M  V30 4088 O 388.886 -1.59079 -1.23514 0
M  V30 4089 C 385.951 -2.92966 -1.85396 0
M  V30 4090 C 385.012 -4.06935 -1.36756 0
M  V30 4091 C 384.245 -4.71851 -2.49384 0
M  V30 4092 O 384.468 -4.35823 -3.67987 0
M  V30 4093 O 383.402 -5.60467 -2.19454 0
M  V30 4094 H 387.228 -3.0349 -0.112966 0
M  V30 4095 H 384.813 -1.49397 0.0101513 0
M  V30 4096 H 386.695 -3.35927 -2.54423 0
M  V30 4097 H 385.37 -2.17211 -2.40002 0
M  V30 4098 H 384.277 -3.68503 -0.644726 0
M  V30 4099 H 385.61 -4.84492 -0.867647 0
M  V30 4100 N 387.262 0.0317525 -1.57568 0
M  V30 4101 C 388.502 0.727979 -1.90997 0
M  V30 4102 C 388.866 1.72664 -0.839708 0
M  V30 4103 O 390.067 2.47092 -1.05825 0
M  V30 4104 C 388.338 1.38239 -3.29583 0
M  V30 4105 S 389.897 2.10814 -3.84841 0
M  V30 4106 H 386.715 0.241226 -0.668828 0
M  V30 4107 H 389.317 -0.0173037 -1.95492 0
M  V30 4108 H 388.021 0.642288 -4.05343 0
M  V30 4109 H 387.552 2.16628 -3.28384 0
M  V30 4110 H 389.567 3.3792 -3.63352 0
M  V30 4111 N 388.74 1.54641 0.303973 0
M  V30 4112 C 389.67 1.88386 1.3796 0
M  V30 4113 C 390.651 0.742485 1.5304 0
M  V30 4114 O 391.836 0.997959 1.66597 0
M  V30 4115 C 388.966 2.12854 2.74427 0
M  V30 4116 C 387.92 3.28702 2.74115 0
M  V30 4117 C 387.246 3.38582 4.13844 0
M  V30 4118 C 388.546 4.65881 2.3612 0
M  V30 4119 H 390.24 2.78474 1.09966 0
M  V30 4120 H 387.786 1.33988 0.527556 0
M  V30 4121 H 389.739 2.35047 3.49758 0
M  V30 4122 H 388.463 1.19535 3.03939 0
M  V30 4123 H 387.122 3.06428 2.0124 0
M  V30 4124 H 386.77 2.42784 4.40528 0
M  V30 4125 H 386.47 4.16453 4.14537 0
M  V30 4126 H 387.994 3.63031 4.90959 0
M  V30 4127 H 389.408 4.87823 3.01167 0
M  V30 4128 H 387.805 5.46444 2.48031 0
M  V30 4129 H 388.875 4.66799 1.3125 0
M  V30 4130 N 390.218 -0.567019 1.47046 0
M  V30 4131 C 391.634 -0.891975 1.32348 0
M  V30 4132 C 391.834 -1.99154 0.306616 0
M  V30 4133 O 390.89 -2.50883 -0.28532 0
M  V30 4134 C 392.203 -1.29449 2.7141 0
M  V30 4135 C 393.751 -1.40646 2.79621 0
M  V30 4136 C 394.226 -1.84257 4.19301 0
M  V30 4137 N 395.717 -1.91424 4.21795 0
M  V30 4138 C 396.452 -2.26476 5.26779 0
M  V30 4139 N 395.948 -2.60211 6.42077 0
M  V30 4140 N 397.741 -2.27166 5.14152 0
M  V30 4141 H 389.892 0.159074 2.11803 0
M  V30 4142 H 392.155 0.00849752 0.947962 0
M  V30 4143 H 391.861 -0.560448 3.47206 0
M  V30 4144 H 391.735 -2.25273 3.02542 0
M  V30 4145 H 394.122 -2.13133 2.04104 0
M  V30 4146 H 394.203 -0.430339 2.52154 0
M  V30 4147 H 393.847 -1.12343 4.95319 0
M  V30 4148 H 393.777 -2.82855 4.44185 0
M  V30 4149 H 396.268 -1.6778 3.38612 0
M  V30 4150 H 396.581 -2.85956 7.17948 0
M  V30 4151 H 394.926 -2.57813 6.45413 0
M  V30 4152 H 398.117 -2.00244 4.23107 0
M  V30 4153 H 398.29 -2.54154 5.96079 0
M  V30 4154 N 391.696 -1.35014 -0.812953 0
M  V30 4155 C 392.659 -1.27292 -1.90602 0
M  V30 4156 C 393.659 -0.185817 -1.59723 0
M  V30 4157 O 394.849 -0.439102 -1.68575 0
M  V30 4158 C 391.981 -0.967676 -3.26877 0
M  V30 4159 H 393.174 -2.24479 -1.9887 0
M  V30 4160 H 390.727 -1.19446 -1.00808 0
M  V30 4161 H 391.462 0.0005954 -3.243 0
M  V30 4162 H 391.247 -1.75412 -3.50675 0
M  V30 4163 H 392.737 -0.939085 -4.06904 0
M  V30 4164 N 393.175 1.03435 -1.18907 0
M  V30 4165 C 394.415 1.78302 -0.999391 0
M  V30 4166 C 394.779 1.86353 0.462219 0
M  V30 4167 O 395.98 2.57489 0.771543 0
M  V30 4168 C 394.251 3.17362 -1.64365 0
M  V30 4169 S 395.81 4.08488 -1.6026 0
M  V30 4170 H 392.628 0.613861 -0.358742 0
M  V30 4171 H 395.23 1.23979 -1.51161 0
M  V30 4172 H 393.934 3.09116 -2.69955 0
M  V30 4173 H 393.465 3.76762 -1.13199 0
M  V30 4174 H 395.48 4.92274 -0.622932 0
M  V30 4175 N 394.653 0.992116 1.22453 0
M  V30 4176 C 395.6 0.541731 2.24352 0
M  V30 4177 C 396.57 -0.425519 1.60557 0
M  V30 4178 O 397.755 -0.330453 1.87917 0
M  V30 4179 C 394.895 -0.138248 3.44823 0
M  V30 4180 C 394.008 0.870649 4.23136 0
M  V30 4181 C 393.143 0.164269 5.30946 0
M  V30 4182 C 392.182 1.16159 6.00977 0
M  V30 4183 N 391.319 0.483568 7.00433 0
M  V30 4184 H 396.159 1.41541 2.62241 0
M  V30 4185 H 393.696 0.709013 1.28885 0
M  V30 4186 H 395.654 -0.5494 4.13567 0
M  V30 4187 H 394.284 -0.975721 3.077 0
M  V30 4188 H 393.336 1.40013 3.53696 0
M  V30 4189 H 394.648 1.63014 4.7141 0
M  V30 4190 H 393.802 -0.303653 6.0594 0
M  V30 4191 H 392.541 -0.627733 4.83643 0
M  V30 4192 H 391.546 1.64015 5.24766 0
M  V30 4193 H 392.771 1.95445 6.50368 0
M  V30 4194 H 390.717 -0.289012 6.55363 0
M  V30 4195 H 390.634 1.18152 7.4671 0
M  V30 4196 H 391.902 0.0384219 7.79491 0
M  V30 4197 N 396.131 -1.37776 0.765217 0
M  V30 4198 C 397.078 -2.30342 0.145274 0
M  V30 4199 C 398.048 -1.5077 -0.696971 0
M  V30 4200 O 399.233 -1.79362 -0.650689 0
M  V30 4201 C 396.373 -3.37227 -0.732939 0
M  V30 4202 C 395.486 -4.31819 0.125199 0
M  V30 4203 C 394.621 -5.25777 -0.757107 0
M  V30 4204 C 393.66 -6.12012 0.103963 0
M  V30 4205 N 392.797 -6.98232 -0.735953 0
M  V30 4206 H 397.637 -2.8278 0.940195 0
M  V30 4207 H 395.174 -1.39211 0.475255 0
M  V30 4208 H 397.132 -3.97818 -1.25686 0
M  V30 4209 H 395.762 -2.86171 -1.49353 0
M  V30 4210 H 394.814 -3.7259 0.766865 0
M  V30 4211 H 396.126 -4.92509 0.789683 0
M  V30 4212 H 395.28 -5.91541 -1.34776 0
M  V30 4213 H 394.019 -4.65481 -1.45529 0
M  V30 4214 H 393.024 -5.45233 0.707197 0
M  V30 4215 H 394.249 -6.74379 0.799381 0
M  V30 4216 H 392.195 -6.40472 -1.41887 0
M  V30 4217 H 392.112 -7.55891 -0.128624 0
M  V30 4218 H 393.38 -7.68393 -1.31121 0
M  V30 4219 N 397.609 -0.515225 -1.4894 0
M  V30 4220 C 398.857 0.0241671 -2.02086 0
M  V30 4221 C 399.178 1.3616 -1.3959 0
M  V30 4222 O 398.448 1.87841 -0.556121 0
M  V30 4223 H 397.028 0.0119203 -0.746905 0
M  V30 4224 H 399.69 -0.675702 -1.82812 0
M  V30 4225 H 398.786 0.143385 -3.1177 0
M  V30 4226 N 399.087 1.5561 -0.249682 0
M  V30 4227 C 400.334 1.99011 0.374287 0
M  V30 4228 C 400.662 1.13785 1.57744 0
M  V30 4229 O 399.917 0.189326 1.94782 0
M  V30 4230 C 400.216 3.4775 0.824887 0
M  V30 4231 C 399.882 4.50086 -0.270819 0
M  V30 4232 C 398.544 4.77791 -0.571746 0
M  V30 4233 C 400.896 5.11312 -1.01041 0
M  V30 4234 C 398.224 5.63997 -1.61629 0
M  V30 4235 C 400.576 5.98651 -2.0445 0
M  V30 4236 C 399.24 6.24688 -2.35204 0
M  V30 4237 H 398.51 0.728233 0.136961 0
M  V30 4238 H 401.157 1.88122 -0.358087 0
M  V30 4239 H 399.462 3.55985 1.63651 0
M  V30 4240 H 401.159 3.78721 1.31799 0
M  V30 4241 H 397.749 4.28592 -0.026136 0
M  V30 4242 H 401.933 4.89953 -0.791177 0
M  V30 4243 H 397.189 5.82425 -1.85988 0
M  V30 4244 H 401.363 6.45135 -2.62248 0
M  V30 4245 H 398.99 6.91281 -3.16282 0
M  V30 4246 N 400.565 -0.0233959 1.57583 0
M  V30 4247 C 401.814 -0.712133 1.8871 0
M  V30 4248 C 402.127 -1.76217 0.848944 0
M  V30 4249 O 403.333 -2.50389 1.04964 0
M  V30 4250 C 401.789 -1.3177 3.3491 0
M  V30 4251 C 401.397 -0.303715 4.46969 0
M  V30 4252 C 403.141 -1.98598 3.75179 0
M  V30 4253 C 401.048 -0.917945 5.84233 0
M  V30 4254 H 399.978 -0.269735 0.704101 0
M  V30 4255 H 402.629 0.0333114 1.8347 0
M  V30 4256 H 401.011 -2.11304 3.34913 0
M  V30 4257 H 402.185 0.465325 4.58445 0
M  V30 4258 H 400.5 0.2628 4.1557 0
M  V30 4259 H 403.097 -2.45416 4.75053 0
M  V30 4260 H 403.44 -2.80659 3.07468 0
M  V30 4261 H 403.973 -1.25831 3.77374 0
M  V30 4262 H 400.712 -0.136633 6.55358 0
M  V30 4263 H 400.232 -1.65669 5.76467 0
M  V30 4264 H 401.911 -1.4236 6.31144 0
M  V30 4265 N 402.043 -1.548 -0.295768 0
M  V30 4266 C 402.975 -1.82492 -1.3867 0
M  V30 4267 C 403.988 -0.708134 -1.46592 0
M  V30 4268 O 405.177 -0.985686 -1.48817 0
M  V30 4269 C 402.277 -1.95256 -2.76999 0
M  V30 4270 C 401.45 -3.25709 -2.91946 0
M  V30 4271 C 400.509 -3.28824 -4.10806 0
M  V30 4272 O 399.535 -4.02328 -4.02643 0
M  V30 4273 N 400.737 -2.5459 -5.21694 0
M  V30 4274 H 403.502 -2.76646 -1.15269 0
M  V30 4275 H 401.063 -1.54438 -0.485849 0
M  V30 4276 H 403.055 -1.94736 -3.54768 0
M  V30 4277 H 401.625 -1.08072 -2.93324 0
M  V30 4278 H 400.845 -3.38959 -2.01247 0
M  V30 4279 H 402.133 -4.11786 -2.98847 0
M  V30 4280 H 401.531 -1.94512 -5.31208 0
M  V30 4281 H 400.088 -2.59818 -5.97778 0
M  V30 4282 N 403.521 0.559213 -1.47345 0
M  V30 4283 C 404.937 0.884943 -1.32819 0
M  V30 4284 C 405.137 1.98988 -0.317173 0
M  V30 4285 O 404.193 2.51031 0.272011 0
M  V30 4286 C 405.506 1.28007 -2.72093 0
M  V30 4287 C 407.054 1.39161 -2.80363 0
M  V30 4288 C 407.529 1.82031 -4.20272 0
M  V30 4289 N 409.02 1.89185 -4.22804 0
M  V30 4290 C 409.755 2.2368 -5.27973 0
M  V30 4291 N 409.251 2.56802 -6.43447 0
M  V30 4292 N 411.044 2.24436 -5.15349 0
M  V30 4293 H 403.195 -0.170304 -2.11716 0
M  V30 4294 H 405.458 -0.0135247 -0.947904 0
M  V30 4295 H 405.164 0.542027 -3.47498 0
M  V30 4296 H 405.038 2.23665 -3.03733 0
M  V30 4297 H 407.425 2.12048 -2.05231 0
M  V30 4298 H 407.506 0.41696 -2.52379 0
M  V30 4299 H 407.15 1.09715 -4.95908 0
M  V30 4300 H 407.08 2.80495 -4.45679 0
M  V30 4301 H 409.571 1.65982 -3.39497 0
M  V30 4302 H 409.884 2.82144 -7.19454 0
M  V30 4303 H 408.229 2.54387 -6.46771 0
M  V30 4304 H 411.42 1.97998 -4.24163 0
M  V30 4305 H 411.593 2.50989 -5.97418 0
M  V30 4306 N 404.999 1.35443 0.805782 0
M  V30 4307 C 406.248 1.28097 1.55801 0
M  V30 4308 C 406.561 -0.142428 1.95081 0
M  V30 4309 O 407.767 -0.33817 2.69386 0
M  V30 4310 C 406.223 2.24653 2.81174 0
M  V30 4311 C 405.831 3.72342 2.49129 0
M  V30 4312 C 407.575 2.2625 3.59181 0
M  V30 4313 C 405.482 4.60719 3.70799 0
M  V30 4314 H 404.412 0.475937 0.584808 0
M  V30 4315 H 407.063 1.60712 0.885661 0
M  V30 4316 H 405.445 1.85011 3.50124 0
M  V30 4317 H 406.619 4.20624 1.88181 0
M  V30 4318 H 404.934 3.73361 1.84366 0
M  V30 4319 H 407.531 2.89495 4.49552 0
M  V30 4320 H 407.874 1.26647 3.96568 0
M  V30 4321 H 408.407 2.64426 2.97193 0
M  V30 4322 H 405.146 5.61324 3.3852 0
M  V30 4323 H 404.666 4.17163 4.3097 0
M  V30 4324 H 406.345 4.76182 4.38018 0
M  V30 4325 N 406.477 -1.02803 1.19454 0
M  V30 4326 C 407.702 -1.80378 1.02364 0
M  V30 4327 C 408.127 -1.83282 -0.423007 0
M  V30 4328 O 407.485 -1.25945 -1.30413 0
M  V30 4329 C 407.533 -3.23248 1.59821 0
M  V30 4330 O 406.637 -4.04 0.828105 0
M  V30 4331 H 405.978 -0.556799 0.361761 0
M  V30 4332 H 408.508 -1.29385 1.58495 0
M  V30 4333 H 408.518 -3.73994 1.63073 0
M  V30 4334 H 407.193 -3.2045 2.65113 0
M  V30 4335 H 405.77 -3.62635 0.86891 0
M  V30 4336 N 407.956 -0.998596 -1.21925 0
M  V30 4337 C 408.903 -0.553621 -2.24062 0
M  V30 4338 C 409.873 0.416999 -1.6078 0
M  V30 4339 O 411.058 0.320482 -1.88089 0
M  V30 4340 C 408.198 0.119959 -3.44891 0
M  V30 4341 C 407.311 -0.893077 -4.22668 0
M  V30 4342 C 406.446 -0.192424 -5.30851 0
M  V30 4343 C 405.485 -1.19344 -6.00353 0
M  V30 4344 N 404.622 -0.520707 -7.00166 0
M  V30 4345 H 409.462 -1.4293 -2.61486 0
M  V30 4346 H 406.999 -0.715838 -1.28507 0
M  V30 4347 H 408.957 0.527459 -4.13852 0
M  V30 4348 H 407.587 0.959389 -3.08214 0
M  V30 4349 H 406.639 -1.41886 -3.52948 0
M  V30 4350 H 407.951 -1.65512 -4.70539 0
M  V30 4351 H 407.105 0.271515 -6.06092 0
M  V30 4352 H 405.844 0.602075 -4.83969 0
M  V30 4353 H 404.849 -1.66795 -5.23889 0
M  V30 4354 H 406.074 -1.98891 -6.49322 0
M  V30 4355 H 404.02 0.254252 -6.55507 0
M  V30 4356 H 403.937 -1.2211 -7.46073 0
M  V30 4357 H 405.205 -0.0797596 -7.79459 0
M  V30 4358 N 409.434 1.37368 -0.772513 0
M  V30 4359 C 410.682 1.99279 -0.336516 0
M  V30 4360 C 411.003 1.6163 1.09091 0
M  V30 4361 O 410.273 0.882109 1.74916 0
M  V30 4362 H 408.853 0.737063 -0.121435 0
M  V30 4363 H 411.515 1.67836 -0.990809 0
M  V30 4364 H 410.611 3.09332 -0.414763 0
M  V30 4365 N 410.912 0.523116 1.48665 0
M  V30 4366 C 412.16 -0.0134497 2.02096 0
M  V30 4367 C 412.481 -1.35418 1.40311 0
M  V30 4368 O 411.751 -1.87543 0.566074 0
M  V30 4369 H 410.331 -0.00795915 0.746958 0
M  V30 4370 H 412.993 0.685388 1.82451 0
M  V30 4371 H 412.089 -0.126849 3.11842 0
M  V30 4372 N 412.39 -1.55475 0.257931 0
M  V30 4373 C 413.32 -2.24815 -0.630912 0
M  V30 4374 C 414.301 -1.23224 -1.17259 0
M  V30 4375 O 415.486 -1.51904 -1.20991 0
M  V30 4376 C 412.616 -2.95609 -1.82298 0
M  V30 4377 C 411.57 -4.03982 -1.41359 0
M  V30 4378 C 410.896 -4.6226 -2.68738 0
M  V30 4379 C 412.196 -5.19109 -0.57648 0
M  V30 4380 H 413.89 -2.99354 -0.0526878 0
M  V30 4381 H 411.436 -1.4398 -0.023901 0
M  V30 4382 H 413.389 -3.42822 -2.45054 0
M  V30 4383 H 412.113 -2.18577 -2.42676 0
M  V30 4384 H 410.772 -3.57555 -0.809324 0
M  V30 4385 H 410.42 -3.81915 -3.27338 0
M  V30 4386 H 410.12 -5.35424 -2.42065 0
M  V30 4387 H 411.644 -5.12212 -3.32372 0
M  V30 4388 H 413.058 -5.62479 -1.10861 0
M  V30 4389 H 411.455 -5.98729 -0.405351 0
M  V30 4390 H 412.525 -4.83174 0.408776 0
M  V30 4391 N 413.868 0.0150385 -1.57593 0
M  V30 4392 C 415.117 0.702115 -1.89085 0
M  V30 4393 C 415.43 1.75764 -0.858277 0
M  V30 4394 O 416.636 2.49829 -1.0629 0
M  V30 4395 C 415.092 1.29992 -3.35604 0
M  V30 4396 C 414.7 0.280007 -4.47124 0
M  V30 4397 C 416.444 1.96606 -3.76227 0
M  V30 4398 C 414.351 0.886949 -5.84711 0
M  V30 4399 H 413.281 0.265997 -0.705522 0
M  V30 4400 H 415.932 -0.0430408 -1.8345 0
M  V30 4401 H 414.314 2.09525 -3.36029 0
M  V30 4402 H 415.488 -0.489631 -4.58191 0
M  V30 4403 H 413.803 -0.284835 -4.15425 0
M  V30 4404 H 416.4 2.42893 -4.76347 0
M  V30 4405 H 416.743 2.79024 -3.08952 0
M  V30 4406 H 417.276 1.23828 -3.78036 0
M  V30 4407 H 414.015 0.101876 -6.55421 0
M  V30 4408 H 413.535 1.6261 -5.77337 0
M  V30 4409 H 415.214 1.39011 -6.3189 0
M  V30 4410 N 415.346 1.54954 0.287554 0
M  V30 4411 C 416.293 1.86834 1.35505 0
M  V30 4412 C 417.263 0.718452 1.49758 0
M  V30 4413 O 418.448 0.968358 1.644 0
M  V30 4414 C 415.588 2.13303 2.71286 0
M  V30 4415 C 414.701 3.40883 2.65373 0
M  V30 4416 C 413.836 3.57125 3.93236 0
M  V30 4417 C 412.875 4.78449 3.81776 0
M  V30 4418 N 412.012 4.91426 5.01443 0
M  V30 4419 H 416.852 2.77889 1.07619 0
M  V30 4420 H 414.389 1.37593 0.520241 0
M  V30 4421 H 416.347 2.26646 3.50267 0
M  V30 4422 H 414.977 1.25499 2.97405 0
M  V30 4423 H 414.029 3.36088 1.78182 0
M  V30 4424 H 415.341 4.29993 2.52799 0
M  V30 4425 H 414.495 3.70207 4.80658 0
M  V30 4426 H 413.234 2.66173 4.0866 0
M  V30 4427 H 412.239 4.65386 2.92738 0
M  V30 4428 H 413.464 5.70822 3.67884 0
M  V30 4429 H 411.41 4.03401 5.17304 0
M  V30 4430 H 411.327 5.74559 4.91343 0
M  V30 4431 H 412.595 5.08879 5.90477 0
M  V30 4432 N 416.824 -0.551391 1.4764 0
M  V30 4433 C 418.052 -1.33357 1.58189 0
M  V30 4434 C 418.467 -1.87342 0.234199 0
M  V30 4435 O 417.824 -1.65301 -0.77343 0
M  V30 4436 C 417.875 -2.49942 2.61173 0
M  V30 4437 O 417.596 -1.98187 3.90709 0
M  V30 4438 C 419.097 -3.42072 2.8196 0
M  V30 4439 H 416.317 -0.40631 0.533998 0
M  V30 4440 H 418.861 -0.667367 1.93304 0
M  V30 4441 H 417.016 -3.12489 2.28975 0
M  V30 4442 H 417.43 -2.74342 4.47031 0
M  V30 4443 H 418.904 -4.20278 3.57869 0
M  V30 4444 H 419.381 -3.95978 1.89995 0
M  V30 4445 H 419.987 -2.85336 3.15378 0
M  V30 4446 N 418.302 -1.35869 -0.798587 0
M  V30 4447 C 419.249 -1.29446 -1.91082 0
M  V30 4448 C 420.219 -0.16487 -1.6528 0
M  V30 4449 O 421.404 -0.349888 -1.87564 0
M  V30 4450 C 418.544 -1.0804 -3.27752 0
M  V30 4451 C 417.657 -2.29993 -3.65687 0
M  V30 4452 C 416.792 -2.01673 -4.91428 0
M  V30 4453 C 415.831 -3.19636 -5.22015 0
M  V30 4454 N 414.968 -2.91039 -6.38937 0
M  V30 4455 H 419.808 -2.24553 -1.95907 0
M  V30 4456 H 417.345 -1.11615 -0.958148 0
M  V30 4457 H 419.303 -0.936586 -4.06551 0
M  V30 4458 H 417.933 -0.16592 -3.22373 0
M  V30 4459 H 416.985 -2.55211 -2.82085 0
M  V30 4460 H 418.297 -3.18052 -3.84245 0
M  V30 4461 H 417.451 -1.84168 -5.78072 0
M  V30 4462 H 416.19 -1.10911 -4.74921 0
M  V30 4463 H 415.195 -3.37709 -4.33858 0
M  V30 4464 H 416.42 -4.11211 -5.40447 0
M  V30 4465 H 414.366 -2.0288 -6.2384 0
M  V30 4466 H 414.283 -3.72635 -6.57784 0
M  V30 4467 H 415.551 -2.77093 -7.28587 0
M  V30 4468 N 419.78 1.02168 -1.19998 0
M  V30 4469 C 421.196 1.27969 -0.953737 0
M  V30 4470 C 421.396 1.98079 0.369703 0
M  V30 4471 O 420.452 2.27306 1.09947 0
M  V30 4472 C 421.765 2.11971 -2.13281 0
M  V30 4473 C 423.313 2.25255 -2.17323 0
M  V30 4474 C 423.788 3.12632 -3.34702 0
M  V30 4475 N 425.279 3.2022 -3.34684 0
M  V30 4476 C 426.014 3.88039 -4.22153 0
M  V30 4477 N 425.51 4.58027 -5.19791 0
M  V30 4478 N 427.303 3.84511 -4.10009 0
M  V30 4479 H 419.454 0.550794 -2.05134 0
M  V30 4480 H 421.717 0.305683 -0.897364 0
M  V30 4481 H 421.423 1.67785 -3.09097 0
M  V30 4482 H 421.297 3.12699 -2.10949 0
M  V30 4483 H 423.684 2.68667 -1.22073 0
M  V30 4484 H 423.765 1.24053 -2.23706 0
M  V30 4485 H 423.409 2.69926 -4.30235 0
M  V30 4486 H 423.339 4.13909 -3.25556 0
M  V30 4487 H 425.83 2.70382 -2.64012 0
M  V30 4488 H 426.143 5.07429 -5.82868 0
M  V30 4489 H 424.488 4.56869 -5.23733 0
M  V30 4490 H 427.679 3.28978 -3.33003 0
M  V30 4491 H 427.852 4.3709 -4.78389 0
M  V30 4492 N 421.258 1.00505 1.21394 0
M  V30 4493 C 422.205 0.565496 2.23765 0
M  V30 4494 C 423.175 -0.408466 1.60999 0
M  V30 4495 O 424.36 -0.310503 1.88257 0
M  V30 4496 C 421.5 -0.101667 3.4495 0
M  V30 4497 C 420.613 0.915479 4.22188 0
M  V30 4498 C 419.748 0.220574 5.30742 0
M  V30 4499 C 418.787 1.22527 5.99711 0
M  V30 4500 N 417.924 0.557831 6.9988 0
M  V30 4501 H 422.764 1.44314 2.60725 0
M  V30 4502 H 420.301 0.722643 1.28126 0
M  V30 4503 H 422.259 -0.505504 4.14126 0
M  V30 4504 H 420.889 -0.94303 3.08718 0
M  V30 4505 H 419.941 1.43756 3.52191 0
M  V30 4506 H 421.253 1.68005 4.69655 0
M  V30 4507 H 420.407 -0.239368 6.06228 0
M  V30 4508 H 419.146 -0.576401 4.84282 0
M  V30 4509 H 418.151 1.69571 5.22997 0
M  V30 4510 H 419.376 2.02332 6.48258 0
M  V30 4511 H 417.322 -0.219486 6.55633 0
M  V30 4512 H 417.239 1.26065 7.45415 0
M  V30 4513 H 418.507 0.121095 7.79406 0
M  V30 4514 N 422.737 -1.36956 0.779787 0
M  V30 4515 C 424.153 -1.52817 0.460342 0
M  V30 4516 C 424.353 -1.7361 -1.02283 0
M  V30 4517 O 423.409 -1.76207 -1.80852 0
M  V30 4518 C 424.722 -2.71983 1.28241 0
M  V30 4519 C 426.27 -2.85849 1.27512 0
M  V30 4520 C 426.745 -4.08008 2.08072 0
M  V30 4521 N 428.236 -4.15135 2.05467 0
M  V30 4522 C 428.971 -5.08711 2.64577 0
M  V30 4523 N 428.467 -6.07792 3.32506 0
M  V30 4524 N 430.26 -5.01254 2.54363 0
M  V30 4525 H 422.411 -1.21713 1.74068 0
M  V30 4526 H 424.674 -0.593294 0.739396 0
M  V30 4527 H 424.38 -2.63109 2.33381 0
M  V30 4528 H 424.254 -3.65882 0.917088 0
M  V30 4529 H 426.641 -2.94189 0.231686 0
M  V30 4530 H 426.722 -1.92886 1.68014 0
M  V30 4531 H 426.366 -4.00429 3.12441 0
M  V30 4532 H 426.296 -5.001 1.64947 0
M  V30 4533 H 428.787 -3.44189 1.5602 0
M  V30 4534 H 429.1 -6.75739 3.74963 0
M  V30 4535 H 427.445 -6.08047 3.36606 0
M  V30 4536 H 430.636 -4.22795 2.00902 0
M  V30 4537 H 430.809 -5.73995 3.00722 0
M  V30 4538 N 424.215 -0.530993 -1.48385 0
M  V30 4539 C 425.162 0.231223 -2.29639 0
M  V30 4540 C 426.132 0.932864 -1.37429 0
M  V30 4541 O 427.317 0.933692 -1.66394 0
M  V30 4542 C 424.457 1.27155 -3.2082 0
M  V30 4543 C 423.57 0.578655 -4.28107 0
M  V30 4544 C 422.705 1.602 -5.06467 0
M  V30 4545 C 421.744 0.892625 -6.05556 0
M  V30 4546 N 420.881 1.86157 -6.76971 0
M  V30 4547 H 425.721 -0.467848 -2.94305 0
M  V30 4548 H 423.258 -0.242556 -1.45086 0
M  V30 4549 H 425.216 1.88703 -3.72085 0
M  V30 4550 H 423.846 1.939 -2.58075 0
M  V30 4551 H 422.898 -0.150782 -3.80101 0
M  V30 4552 H 424.21 0.0217065 -4.98795 0
M  V30 4553 H 423.364 2.29173 -5.61751 0
M  V30 4554 H 422.103 2.19285 -4.35621 0
M  V30 4555 H 421.108 0.188829 -5.49476 0
M  V30 4556 H 422.333 0.307878 -6.78402 0
M  V30 4557 H 420.279 2.44147 -6.08875 0
M  V30 4558 H 420.196 1.35608 -7.43738 0
M  V30 4559 H 421.464 2.54325 -7.36844 0
M  V30 4560 N 425.693 1.55336 -0.266172 0
M  V30 4561 C 426.64 2.22172 0.625165 0
M  V30 4562 C 427.61 1.19211 1.15663 0
M  V30 4563 O 428.795 1.47723 1.20758 0
M  V30 4564 C 425.935 2.93972 1.8076 0
M  V30 4565 C 425.048 4.11632 1.31084 0
M  V30 4566 C 424.183 4.71099 2.45436 0
M  V30 4567 C 423.222 5.8097 1.92718 0
M  V30 4568 N 422.359 6.34538 3.00509 0
M  V30 4569 H 427.199 2.9796 0.0485582 0
M  V30 4570 H 424.736 1.47095 0.0122024 0
M  V30 4571 H 426.694 3.33811 2.50251 0
M  V30 4572 H 425.324 2.20623 2.35638 0
M  V30 4573 H 424.376 3.76975 0.509326 0
M  V30 4574 H 425.688 4.90893 0.884633 0
M  V30 4575 H 424.842 5.13612 3.22936 0
M  V30 4576 H 423.581 3.91096 2.91368 0
M  V30 4577 H 422.586 5.37916 1.13695 0
M  V30 4578 H 423.811 6.62836 1.47733 0
M  V30 4579 H 421.757 5.57433 3.45839 0
M  V30 4580 H 421.674 7.09046 2.62279 0
M  V30 4581 H 422.942 6.81709 3.78011 0
M  V30 4582 N 427.171 -0.0066808 1.57599 0
M  V30 4583 C 428.103 -1.02827 2.04839 0
M  V30 4584 C 429.116 -1.31108 0.965113 0
M  V30 4585 O 430.305 -1.28202 1.24203 0
M  V30 4586 C 427.405 -2.36464 2.42771 0
M  V30 4587 C 426.578 -2.27219 3.73751 0
M  V30 4588 C 425.637 -3.43489 3.98625 0
M  V30 4589 O 424.663 -3.21976 4.69382 0
M  V30 4590 N 425.865 -4.66116 3.46 0
M  V30 4591 H 428.63 -0.625455 2.93101 0
M  V30 4592 H 426.191 -0.194198 1.60731 0
M  V30 4593 H 428.183 -3.13008 2.56531 0
M  V30 4594 H 426.753 -2.68512 1.60063 0
M  V30 4595 H 425.973 -1.35629 3.70133 0
M  V30 4596 H 427.261 -2.18208 4.59633 0
M  V30 4597 H 426.659 -4.86493 2.88688 0
M  V30 4598 H 425.216 -5.39949 3.65101 0
M  V30 4599 N 428.649 -1.55105 -0.279332 0
M  V30 4600 C 430.065 -1.46803 -0.626187 0
M  V30 4601 C 430.265 -0.676939 -1.89789 0
M  V30 4602 O 429.321 -0.19326 -2.51759 0
M  V30 4603 C 430.634 -2.90962 -0.759034 0
M  V30 4604 C 432.182 -3.01138 -0.853504 0
M  V30 4605 C 432.657 -4.46539 -1.01818 0
M  V30 4606 N 434.148 -4.50341 -1.08386 0
M  V30 4607 C 434.883 -5.60053 -1.22996 0
M  V30 4608 N 434.379 -6.79645 -1.34366 0
M  V30 4609 N 436.172 -5.47783 -1.26056 0
M  V30 4610 H 428.323 -2.04996 0.555921 0
M  V30 4611 H 430.586 -0.929325 0.187239 0
M  V30 4612 H 430.292 -3.51544 0.104852 0
M  V30 4613 H 430.166 -3.39619 -1.64131 0
M  V30 4614 H 432.553 -2.40658 -1.70786 0
M  V30 4615 H 432.634 -2.55745 0.0532466 0
M  V30 4616 H 432.278 -5.0762 -0.168504 0
M  V30 4617 H 432.208 -4.89583 -1.93948 0
M  V30 4618 H 434.699 -3.64191 -1.00864 0
M  V30 4619 H 435.012 -7.59012 -1.4533 0
M  V30 4620 H 433.357 -6.82469 -1.31382 0
M  V30 4621 H 436.548 -4.53294 -1.168 0
M  V30 4622 H 436.721 -6.33331 -1.37098 0
M  V30 4623 N 430.127 0.543554 -1.4793 0
M  V30 4624 C 431.373 1.30201 -1.55485 0
M  V30 4625 C 431.706 1.92925 -0.222201 0
M  V30 4626 O 430.981 1.78586 0.77053 0
M  V30 4627 C 431.264 2.40174 -2.68307 0
M  V30 4628 C 431.117 1.8223 -4.11233 0
M  V30 4629 C 432.436 3.42024 -2.76961 0
M  V30 4630 H 429.555 0.472036 -0.565996 0
M  V30 4631 H 432.197 0.606914 -1.80046 0
M  V30 4632 H 430.347 2.99463 -2.47495 0
M  V30 4633 H 432.019 1.27096 -4.43446 0
M  V30 4634 H 430.262 1.12832 -4.18869 0
M  V30 4635 H 430.933 2.61793 -4.85972 0
M  V30 4636 H 433.409 2.92672 -2.95774 0
M  V30 4637 H 432.285 4.16383 -3.57654 0
M  V30 4638 H 432.546 4.0173 -1.84568 0
M  V30 4639 N 431.605 1.3629 0.791371 0
M  V30 4640 C 432.552 1.30458 1.90393 0
M  V30 4641 C 433.522 0.173632 1.6519 0
M  V30 4642 O 434.707 0.35983 1.87376 0
M  V30 4643 C 431.847 1.09777 3.27174 0
M  V30 4644 C 430.96 2.31929 3.64462 0
M  V30 4645 C 430.095 2.04276 4.90352 0
M  V30 4646 C 429.134 3.224 5.20312 0
M  V30 4647 N 428.271 2.94424 6.37385 0
M  V30 4648 H 433.111 2.25589 1.94714 0
M  V30 4649 H 430.648 1.12122 0.952216 0
M  V30 4650 H 432.606 0.958133 4.06049 0
M  V30 4651 H 431.236 0.183014 3.22281 0
M  V30 4652 H 430.288 2.56703 2.80727 0
M  V30 4653 H 431.6 3.20085 3.82553 0
M  V30 4654 H 430.754 1.87231 5.77087 0
M  V30 4655 H 429.493 1.13428 4.74326 0
M  V30 4656 H 428.498 3.40005 4.32061 0
M  V30 4657 H 429.723 4.14071 5.38258 0
M  V30 4658 H 427.669 2.06185 6.22755 0
M  V30 4659 H 427.586 3.76118 6.55798 0
M  V30 4660 H 428.854 2.80953 7.27108 0
M  V30 4661 N 433.083 -1.0153 1.20538 0
M  V30 4662 C 434.332 -1.74558 1.01057 0
M  V30 4663 C 434.645 -1.90168 -0.457756 0
M  V30 4664 O 435.851 -2.60301 -0.771722 0
M  V30 4665 C 434.307 -3.13963 1.75941 0
M  V30 4666 C 433.915 -3.06361 3.26875 0
M  V30 4667 C 435.659 -3.91191 1.64832 0
M  V30 4668 C 433.566 -4.40782 3.94291 0
M  V30 4669 H 432.496 -0.654417 0.374505 0
M  V30 4670 H 435.147 -1.13521 1.44171 0
M  V30 4671 H 433.529 -3.75549 1.25614 0
M  V30 4672 H 434.703 -2.54074 3.84425 0
M  V30 4673 H 433.018 -2.42625 3.38411 0
M  V30 4674 H 435.615 -4.90644 2.12539 0
M  V30 4675 H 435.958 -4.11884 0.604745 0
M  V30 4676 H 436.491 -3.36236 2.12579 0
M  V30 4677 H 433.23 -4.25292 4.98805 0
M  V30 4678 H 432.75 -4.9307 3.41529 0
M  V30 4679 H 434.429 -5.09621 3.98617 0
M  V30 4680 N 434.561 -1.01147 -1.20859 0
M  V30 4681 C 435.524 -0.582224 -2.21682 0
M  V30 4682 C 436.524 0.344887 -1.57058 0
M  V30 4683 O 437.714 0.134281 -1.73682 0
M  V30 4684 C 434.846 0.150496 -3.40568 0
M  V30 4685 H 436.039 -1.47408 -2.61172 0
M  V30 4686 H 433.592 -0.800695 -1.34233 0
M  V30 4687 H 434.327 1.0575 -3.06574 0
M  V30 4688 H 434.112 -0.515444 -3.88697 0
M  V30 4689 H 435.602 0.438344 -4.15293 0
M  V30 4690 N 436.039 1.36541 -0.78704 0
M  V30 4691 C 437.269 2.03266 -0.369662 0
M  V30 4692 C 437.677 1.59481 1.01796 0
M  V30 4693 O 437.02 0.778612 1.66383 0
M  V30 4694 C 437.082 3.57779 -0.351371 0
M  V30 4695 C 436.746 4.24756 -1.68617 0
M  V30 4696 C 437.743 4.47811 -2.64124 0
M  V30 4697 C 435.428 4.62277 -1.96481 0
M  V30 4698 C 437.422 5.07464 -3.85693 0
M  V30 4699 C 435.109 5.21649 -3.18317 0
M  V30 4700 C 436.107 5.44182 -4.12741 0
M  V30 4701 O 435.795 6.02307 -5.32429 0
M  V30 4702 H 435.527 0.658977 -0.150751 0
M  V30 4703 H 438.081 1.75548 -1.0664 0
M  V30 4704 H 436.311 3.84606 0.401847 0
M  V30 4705 H 438 4.05879 0.0410147 0
M  V30 4706 H 438.766 4.19221 -2.43883 0
M  V30 4707 H 434.645 4.44065 -1.23805 0
M  V30 4708 H 438.189 5.24968 -4.59407 0
M  V30 4709 H 434.086 5.49664 -3.38437 0
M  V30 4710 H 434.854 6.20775 -5.33461 0
M  V30 4711 N 437.518 0.538854 1.48102 0
M  V30 4712 C 438.428 -0.222648 2.33541 0
M  V30 4713 C 439.444 -0.930225 1.47047 0
M  V30 4714 O 440.62 -0.903211 1.80011 0
M  V30 4715 C 437.685 -1.25064 3.23357 0
M  V30 4716 C 436.746 -0.552469 4.2573 0
M  V30 4717 C 435.979 -1.53149 5.11254 0
M  V30 4718 O 436.202 -2.76487 4.9891 0
M  V30 4719 O 435.136 -1.06602 5.92385 0
M  V30 4720 H 438.962 0.477707 2.99919 0
M  V30 4721 H 436.547 0.299669 1.46364 0
M  V30 4722 H 438.429 -1.8445 3.78888 0
M  V30 4723 H 437.104 -1.93325 2.59629 0
M  V30 4724 H 436.011 0.082114 3.7401 0
M  V30 4725 H 437.344 0.0883526 4.92121 0
M  V30 4726 N 438.996 -1.55193 0.274407 0
M  V30 4727 C 439.906 -2.26164 -0.623473 0
M  V30 4728 C 440.922 -1.28729 -1.17068 0
M  V30 4729 O 442.098 -1.61663 -1.20112 0
M  V30 4730 C 439.163 -2.96833 -1.7914 0
M  V30 4731 C 438.224 -4.09745 -1.28093 0
M  V30 4732 C 437.457 -4.77034 -2.3932 0
M  V30 4733 O 437.68 -4.4353 -3.5866 0
M  V30 4734 O 436.614 -5.64996 -2.07516 0
M  V30 4735 H 440.44 -3.03661 -0.0485661 0
M  V30 4736 H 438.025 -1.49341 0.0418382 0
M  V30 4737 H 439.907 -3.41248 -2.4724 0
M  V30 4738 H 438.582 -2.22253 -2.35341 0
M  V30 4739 H 437.489 -3.69787 -0.566416 0
M  V30 4740 H 438.822 -4.86224 -0.764683 0
M  V30 4741 N 440.474 -0.00167713 -1.576 0
M  V30 4742 C 441.723 0.682021 -1.89819 0
M  V30 4743 C 442.036 1.74844 -0.876871 0
M  V30 4744 O 443.242 2.48688 -1.08934 0
M  V30 4745 C 441.698 1.26425 -3.36964 0
M  V30 4746 C 441.306 0.232568 -4.47396 0
M  V30 4747 C 443.05 1.92604 -3.78291 0
M  V30 4748 C 440.957 0.824882 -5.85619 0
M  V30 4749 H 439.887 0.258499 -0.708304 0
M  V30 4750 H 442.538 -0.0624957 -1.83394 0
M  V30 4751 H 440.92 2.05949 -3.38232 0
M  V30 4752 H 442.094 -0.5382 -4.57646 0
M  V30 4753 H 440.409 -0.32888 -4.15099 0
M  V30 4754 H 443.006 2.37827 -4.78897 0
M  V30 4755 H 443.349 2.75732 -3.11894 0
M  V30 4756 H 443.882 1.19812 -3.79328 0
M  V30 4757 H 440.621 0.0323542 -6.55492 0
M  V30 4758 H 440.141 1.56477 -5.79029 0
M  V30 4759 H 441.82 1.32301 -6.33329 0
M  V30 4760 N 441.952 1.55251 0.271103 0
M  V30 4761 C 443.199 1.75946 1.00245 0
M  V30 4762 C 443.527 0.561611 1.86215 0
M  V30 4763 O 442.782 -0.455832 1.90317 0
M  V30 4764 C 443.081 3.01879 1.91321 0
M  V30 4765 C 442.747 4.34337 1.21086 0
M  V30 4766 C 441.409 4.70338 1.01666 0
M  V30 4767 C 443.761 5.16325 0.71119 0
M  V30 4768 C 441.089 5.8588 0.310099 0
M  V30 4769 C 443.441 6.32597 0.0182157 0
M  V30 4770 C 442.105 6.67236 -0.18768 0
M  V30 4771 H 441.375 0.643833 0.366824 0
M  V30 4772 H 444.022 1.89521 0.27458 0
M  V30 4773 H 442.327 2.83212 2.70736 0
M  V30 4774 H 444.024 3.15088 2.48033 0
M  V30 4775 H 440.614 4.06043 1.37213 0
M  V30 4776 H 444.798 4.88987 0.848844 0
M  V30 4777 H 440.054 6.1124 0.139873 0
M  V30 4778 H 444.228 6.9538 -0.376711 0
M  V30 4779 H 441.855 7.56618 -0.73715 0
M  V30 4780 N 443.43 -0.535701 1.48216 0
M  V30 4781 C 444.676 -1.29375 1.56173 0
M  V30 4782 C 445.009 -1.92804 0.232429 0
M  V30 4783 O 444.284 -1.78992 -0.761048 0
M  V30 4784 C 444.567 -2.38747 2.69577 0
M  V30 4785 C 444.42 -1.80046 4.12193 0
M  V30 4786 C 445.739 -3.40551 2.78771 0
M  V30 4787 H 442.858 -0.469027 0.568491 0
M  V30 4788 H 445.5 -0.597358 1.80365 0
M  V30 4789 H 443.65 -2.98147 2.4908 0
M  V30 4790 H 445.322 -1.24742 4.44114 0
M  V30 4791 H 443.565 -1.10609 4.19462 0
M  V30 4792 H 444.236 -2.59212 4.87353 0
M  V30 4793 H 446.712 -2.91099 2.97322 0
M  V30 4794 H 445.588 -4.1448 3.59857 0
M  V30 4795 H 445.849 -4.00746 1.86696 0
M  V30 4796 N 444.908 -1.36708 -0.784132 0
M  V30 4797 C 445.855 -1.31466 -1.89698 0
M  V30 4798 C 446.825 -0.18239 -1.65096 0
M  V30 4799 O 448.01 -0.369762 -1.87183 0
M  V30 4800 C 445.15 -1.1151 -3.26588 0
M  V30 4801 C 444.263 -2.33859 -3.63227 0
M  V30 4802 C 443.398 -2.06873 -4.89262 0
M  V30 4803 C 442.437 -3.25154 -5.18595 0
M  V30 4804 N 441.574 -2.978 -6.35814 0
M  V30 4805 H 446.414 -2.26619 -1.93515 0
M  V30 4806 H 443.951 -1.12625 -0.946256 0
M  V30 4807 H 445.909 -0.979653 -4.05535 0
M  V30 4808 H 444.539 -0.200103 -3.22179 0
M  V30 4809 H 443.591 -2.58188 -2.79362 0
M  V30 4810 H 444.903 -3.22109 -3.8085 0
M  V30 4811 H 444.057 -1.90289 -5.76086 0
M  V30 4812 H 442.796 -1.15942 -4.73718 0
M  V30 4813 H 441.801 -3.42292 -4.30251 0
M  V30 4814 H 443.026 -4.1692 -5.36055 0
M  V30 4815 H 440.972 -2.09485 -6.21653 0
M  V30 4816 H 440.889 -3.7959 -6.53794 0
M  V30 4817 H 442.157 -2.84805 -7.25607 0
M  V30 4818 N 446.386 1.0089 -1.21074 0
M  V30 4819 C 447.334 2.11707 -0.963476 0
M  V30 4820 C 448.328 1.69172 0.0879032 0
M  V30 4821 O 449.534 1.79889 -0.0631415 0
M  V30 4822 H 445.909 0.692026 -0.294287 0
M  V30 4823 H 447.88 2.29743 -1.90422 0
M  V30 4824 C 446.629 3.43473 -0.540509 0
M  V30 4825 H 445.952 3.76634 -1.34114 0
M  V30 4826 H 447.392 4.22044 -0.406777 0
M  V30 4827 C 445.851 3.2849 0.748079 0
M  V30 4828 O 446.381 3.58883 1.8046 0
M  V30 4829 N 444.587 2.81715 0.713081 0
M  V30 4830 H 444.134 2.5718 -0.146973 0
M  V30 4831 H 444.092 2.72071 1.57558 0
M  V30 4832 N 447.864 1.01787 1.20321 0
M  V30 4833 C 448.797 0.533882 2.21867 0
M  V30 4834 C 449.775 -0.419361 1.57099 0
M  V30 4835 O 450.959 -0.339062 1.85426 0
M  V30 4836 C 448.086 -0.222899 3.37966 0
M  V30 4837 C 447.132 0.680091 4.21043 0
M  V30 4838 S 447.965 2.14997 4.90445 0
M  V30 4839 C 449.121 1.40339 6.09964 0
M  V30 4840 H 449.354 1.39429 2.62577 0
M  V30 4841 H 446.887 0.826867 1.30393 0
M  V30 4842 H 448.845 -0.653425 4.05266 0
M  V30 4843 H 447.506 -1.0589 2.95713 0
M  V30 4844 H 446.699 0.0964704 5.03908 0
M  V30 4845 H 446.301 1.04845 3.59004 0
M  V30 4846 H 448.593 0.68407 6.74038 0
M  V30 4847 H 449.536 2.20823 6.72787 0
M  V30 4848 H 449.944 0.905716 5.57187 0
M  V30 4849 O 449.381 -1.32008 0.930387 0
M  V30 4850 H 450.072 -1.85615 0.553775 0
M  V30 END ATOM
M  V30 BEGIN BOND
M  V30 END BOND
M  V30 END CTAB
M  END
$$$$
