drugbank_target|P53004 Biliverdin reductase A (DB00157)
 OpenBabel12092119393D

  0  0  0     0  0            999 V3000
M  V30 BEGIN CTAB
M  V30 COUNTS 4730 4773 0 0 0
M  V30 BEGIN ATOM
M  V30 1 H -0.908 1.98254 -0.117106 0
M  V30 2 N 0 1.576 0 0
M  V30 3 C 0.933 2.03868 1.02534 0
M  V30 4 C 1.911 0.928543 1.3348 0
M  V30 5 O 3.095 1.19667 1.45644 0
M  V30 6 C 0.222 2.43627 2.35294 0
M  V30 7 C -0.732 3.65373 2.2001 0
M  V30 8 S 0.101 5.13292 1.52614 0
M  V30 9 C 1.257 5.56322 2.86805 0
M  V30 10 H 1.49 2.90518 0.631377 0
M  V30 11 H -0.977 1.52953 0.210867 0
M  V30 12 H 0.981 2.67203 3.11629 0
M  V30 13 H -0.358 1.57376 2.7183 0
M  V30 14 H -1.165 3.90944 3.18086 0
M  V30 15 H -1.563 3.418 1.51819 0
M  V30 16 H 0.729 5.58782 3.83104 0
M  V30 17 H 1.672 6.56266 2.65933 0
M  V30 18 H 2.08 4.83886 2.90714 0
M  V30 19 N 1.4781 -0.272755 1.55222 0
M  V30 20 C 2.4261 -1.35705 1.88909 0
M  V30 21 C 3.4201 -1.5112 0.765456 0
M  V30 22 O 4.6261 -1.52901 0.949802 0
M  V30 23 H 1.0011 -0.453868 0.59959 0
M  V30 24 H 2.9721 -1.04544 2.79487 0
M  V30 25 C 1.7211 -2.71049 2.17779 0
M  V30 26 H 1.0441 -2.59979 3.03728 0
M  V30 27 H 2.4841 -3.45858 2.45272 0
M  V30 28 C 0.9431 -3.22165 0.985473 0
M  V30 29 O 1.4731 -4.01096 0.220233 0
M  V30 30 N -0.3209 -2.7985 0.783108 0
M  V30 31 H -0.7739 -2.15775 1.40708 0
M  V30 32 H -0.8159 -3.14397 -0.0130392 0
M  V30 33 N 2.9562 -1.48159 -0.537278 0
M  V30 34 C 3.9192 -1.61665 -1.62472 0
M  V30 35 C 4.9192 -0.490395 -1.5314 0
M  V30 36 O 6.1092 -0.755998 -1.5694 0
M  V30 37 C 3.2412 -1.57997 -3.02076 0
M  V30 38 H 4.4342 -2.58621 -1.51839 0
M  V30 39 H 1.9872 -1.36647 -0.758771 0
M  V30 40 H 2.7222 -0.624913 -3.18222 0
M  V30 41 H 2.5072 -2.39755 -3.10258 0
M  V30 42 H 3.9972 -1.70627 -3.81151 0
M  V30 43 N 4.4343 0.785586 -1.36625 0
M  V30 44 C 5.3443 1.92964 -1.33425 0
M  V30 45 C 6.3603 1.72394 -0.235851 0
M  V30 46 O 7.5363 1.95866 -0.468878 0
M  V30 47 C 4.6013 3.27884 -1.12662 0
M  V30 48 C 3.6623 3.61204 -2.32013 0
M  V30 49 C 2.8953 4.89687 -2.12231 0
M  V30 50 O 3.1183 5.59704 -1.09945 0
M  V30 51 O 2.0523 5.21752 -3.00098 0
M  V30 52 H 5.8783 1.98613 -2.29753 0
M  V30 53 H 3.4633 0.926384 -1.17211 0
M  V30 54 H 5.3453 4.08614 -1.03016 0
M  V30 55 H 4.0203 3.23118 -0.193991 0
M  V30 56 H 2.9273 2.80765 -2.47228 0
M  V30 57 H 4.2603 3.70698 -3.23796 0
M  V30 58 N 5.9124 1.20967 1.01018 0
M  V30 59 C 7.3234 1.02319 1.56165 0
M  V30 60 C 7.6744 -0.418546 1.91684 0
M  V30 61 O 6.7994 -1.30096 1.72928 0
M  V30 62 C 7.3944 1.85109 2.8376 0
M  V30 63 C 5.9534 1.70809 3.35412 0
M  V30 64 C 5.1004 1.82643 2.08655 0
M  V30 65 H 8.0514 1.35065 0.833255 0
M  V30 66 H 8.0724 1.35827 3.55431 0
M  V30 67 H 7.5844 2.90035 2.57878 0
M  V30 68 H 5.6854 0.685464 3.66241 0
M  V30 69 H 5.7984 2.52467 4.07182 0
M  V30 70 H 4.1624 1.25896 2.21409 0
M  V30 71 H 4.9454 2.89066 1.85191 0
M  V30 72 N 7.3905 -1.2043 1.01659 0
M  V30 73 C 8.3005 -2.2689 0.596484 0
M  V30 74 C 9.3165 -1.70107 -0.36599 0
M  V30 75 O 10.4925 -2.00117 -0.226942 0
M  V30 76 C 7.5575 -3.4665 -0.0586659 0
M  V30 77 C 6.6185 -4.18662 0.949751 0
M  V30 78 C 5.8515 -5.32705 0.32577 0
M  V30 79 O 6.0745 -5.63656 -0.874509 0
M  V30 80 O 5.0085 -5.92803 1.04249 0
M  V30 81 H 8.8345 -2.65041 1.4828 0
M  V30 82 H 6.4195 -1.27048 0.786082 0
M  V30 83 H 8.3015 -4.19256 -0.424564 0
M  V30 84 H 6.9765 -3.10375 -0.91918 0
M  V30 85 H 5.8835 -3.48229 1.36702 0
M  V30 86 H 7.2165 -4.58878 1.78023 0
M  V30 87 N 8.8686 -0.792821 -1.36206 0
M  V30 88 C 10.2846 -0.474903 -1.52371 0
M  V30 89 C 10.4846 1.00622 -1.74578 0
M  V30 90 O 9.5406 1.79162 -1.77924 0
M  V30 91 C 10.8536 -1.3083 -2.70747 0
M  V30 92 C 12.4016 -1.30234 -2.84619 0
M  V30 93 C 12.8766 -2.11956 -4.06004 0
M  V30 94 N 14.3676 -2.09419 -4.13156 0
M  V30 95 C 15.1026 -2.69419 -5.06163 0
M  V30 96 N 14.5986 -3.3829 -6.04592 0
M  V30 97 N 16.3916 -2.59134 -4.98804 0
M  V30 98 H 8.5426 -1.75222 -1.20046 0
M  V30 99 H 10.8056 -0.745024 -0.586211 0
M  V30 100 H 10.5116 -2.35881 -2.6087 0
M  V30 101 H 10.3856 -0.95196 -3.6499 0
M  V30 102 H 12.7726 -0.259748 -2.93955 0
M  V30 103 H 12.8536 -1.69847 -1.91274 0
M  V30 104 H 12.4976 -3.16248 -3.97429 0
M  V30 105 H 12.4276 -1.69711 -4.98503 0
M  V30 106 H 14.9186 -1.59297 -3.42685 0
M  V30 107 H 15.2316 -3.81394 -6.7213 0
M  V30 108 H 13.5766 -3.42393 -6.04807 0
M  V30 109 H 16.7676 -2.04927 -4.20859 0
M  V30 110 H 16.9406 -3.06185 -5.711 0
M  V30 111 N 10.3467 1.47872 -0.545128 0
M  V30 112 C 11.2937 2.29849 0.2093 0
M  V30 113 C 12.2637 1.38313 0.919707 0
M  V30 114 O 13.4487 1.67277 0.917772 0
M  V30 115 C 10.5887 3.22019 1.24088 0
M  V30 116 C 9.7017 4.2864 0.537778 0
M  V30 117 C 8.8367 5.07973 1.5536 0
M  V30 118 C 7.8757 6.06381 0.8348 0
M  V30 119 N 7.0127 6.78717 1.79688 0
M  V30 120 H 11.8527 2.93845 -0.49591 0
M  V30 121 H 9.3897 1.44848 -0.256389 0
M  V30 122 H 11.3477 3.73868 1.85144 0
M  V30 123 H 9.9777 2.59914 1.91428 0
M  V30 124 H 9.0297 3.7994 -0.187046 0
M  V30 125 H 10.3417 4.98793 -0.0258907 0
M  V30 126 H 9.4957 5.63912 2.23803 0
M  V30 127 H 8.2347 4.37693 2.15118 0
M  V30 128 H 7.2397 5.49631 0.136388 0
M  V30 129 H 8.4647 6.78665 0.24313 0
M  V30 130 H 6.4107 6.11177 2.38326 0
M  V30 131 H 6.3277 7.44998 1.28505 0
M  V30 132 H 7.5957 7.39237 2.47282 0
M  V30 133 N 11.8248 0.280983 1.55075 0
M  V30 134 C 13.0718 -0.334115 1.99725 0
M  V30 135 C 13.3998 -1.5542 1.1694 0
M  V30 136 O 12.6548 -1.94361 0.228531 0
M  V30 137 C 12.9538 -0.754656 3.49342 0
M  V30 138 C 12.6198 0.361445 4.49449 0
M  V30 139 C 11.2818 0.667893 4.76542 0
M  V30 140 C 13.6338 1.11322 5.09173 0
M  V30 141 C 10.9618 1.7296 5.60626 0
M  V30 142 C 13.3138 2.1647 5.9441 0
M  V30 143 C 11.9778 2.47742 6.19822 0
M  V30 144 H 11.2478 -0.122261 0.730844 0
M  V30 145 H 13.8948 0.395917 1.87363 0
M  V30 146 H 12.1998 -1.56446 3.5921 0
M  V30 147 H 13.8968 -1.24142 3.813 0
M  V30 148 H 10.4868 0.112481 4.28452 0
M  V30 149 H 14.6708 0.88973 4.8826 0
M  V30 150 H 9.9268 1.97684 5.78559 0
M  V30 151 H 14.1008 2.75193 6.3972 0
M  V30 152 H 11.7278 3.30145 6.84769 0
M  V30 153 N 13.3029 -1.57598 0.00835791 0
M  V30 154 C 14.5509 -1.90551 -0.6734 0
M  V30 155 C 14.8719 -0.883301 -1.73847 0
M  V30 156 O 14.1419 0.0781442 -1.95744 0
M  V30 157 H 12.7219 -0.703312 -0.251717 0
M  V30 158 H 15.3839 -1.94833 0.0512592 0
M  V30 159 H 14.4799 -2.9056 -1.13935 0
M  V30 160 N 14.781 0.264519 -1.55364 0
M  V30 161 C 16.027 0.99646 -1.76631 0
M  V30 162 C 16.36 1.85632 -0.570478 0
M  V30 163 O 15.635 1.89647 0.43175 0
M  V30 164 C 15.918 1.87187 -3.07625 0
M  V30 165 C 15.771 1.04138 -4.37579 0
M  V30 166 C 17.09 2.85749 -3.34717 0
M  V30 167 H 14.209 0.360841 -0.642622 0
M  V30 168 H 16.851 0.268218 -1.88097 0
M  V30 169 H 15.001 2.49279 -2.9798 0
M  V30 170 H 16.673 0.440517 -4.59192 0
M  V30 171 H 14.916 0.345115 -4.32425 0
M  V30 172 H 15.587 1.68729 -5.2558 0
M  V30 173 H 18.063 2.33793 -3.4421 0
M  V30 174 H 16.939 3.44136 -4.27623 0
M  V30 175 H 17.2 3.61311 -2.54768 0
M  V30 176 N 16.2591 1.48442 0.529413 0
M  V30 177 C 17.5051 1.5672 1.28711 0
M  V30 178 C 17.8381 0.2406 1.92704 0
M  V30 179 O 17.1131 -0.753454 1.79313 0
M  V30 180 C 17.3961 2.70587 2.37603 0
M  V30 181 C 17.2491 4.12953 1.78297 0
M  V30 182 C 18.5681 2.80212 3.39366 0
M  V30 183 H 15.6871 0.570474 0.466613 0
M  V30 184 H 18.3291 1.80617 0.589706 0
M  V30 185 H 16.4791 2.50342 2.97088 0
M  V30 186 H 18.1511 4.44639 1.22858 0
M  V30 187 H 16.3941 4.19927 1.0883 0
M  V30 188 H 17.0651 4.88448 2.57144 0
M  V30 189 H 19.5411 2.98553 2.89836 0
M  V30 190 H 18.4171 3.61611 4.12951 0
M  V30 191 H 18.6781 1.88393 3.99951 0
M  V30 192 N 17.7372 -0.778329 1.37039 0
M  V30 193 C 18.9832 -1.53892 1.32079 0
M  V30 194 C 19.3162 -1.9396 -0.0965386 0
M  V30 195 O 18.5912 -1.63568 -1.05242 0
M  V30 196 C 18.8742 -2.80847 2.25382 0
M  V30 197 C 18.7272 -2.47076 3.75864 0
M  V30 198 C 20.0462 -3.82741 2.1725 0
M  V30 199 H 17.1652 -0.558303 0.48111 0
M  V30 200 H 19.8072 -0.893397 1.67685 0
M  V30 201 H 17.9572 -3.35931 1.95148 0
M  V30 202 H 19.6292 -1.97957 4.16666 0
M  V30 203 H 17.8722 -1.79863 3.94755 0
M  V30 204 H 18.5432 -3.37798 4.36574 0
M  V30 205 H 21.0192 -3.37133 2.43887 0
M  V30 206 H 19.8952 -4.69303 2.84686 0
M  V30 207 H 20.1562 -4.2652 1.16331 0
M  V30 208 N 19.2153 -1.21501 -1.00376 0
M  V30 209 C 20.4613 -1.03452 -1.74429 0
M  V30 210 C 20.7943 0.430764 -1.89362 0
M  V30 211 O 20.0693 1.31962 -1.42886 0
M  V30 212 C 20.3523 -1.73375 -3.15615 0
M  V30 213 C 20.2053 -3.27431 -3.08397 0
M  V30 214 C 21.5243 -1.47732 -4.14564 0
M  V30 215 H 18.6433 -0.377226 -0.633143 0
M  V30 216 H 21.2853 -1.49693 -1.17013 0
M  V30 217 H 19.4353 -1.34064 -3.64636 0
M  V30 218 H 21.1073 -3.76119 -2.67081 0
M  V30 219 H 19.3503 -3.5767 -2.45468 0
M  V30 220 H 20.0213 -3.71524 -4.08258 0
M  V30 221 H 22.4973 -1.8186 -3.74254 0
M  V30 222 H 21.3733 -1.99169 -5.11491 0
M  V30 223 H 21.6343 -0.407589 -4.40217 0
M  V30 224 N 20.6934 1.19889 -1.02296 0
M  V30 225 C 21.9414 1.89046 -0.714558 0
M  V30 226 C 22.2624 1.79636 0.758681 0
M  V30 227 O 21.5324 1.20292 1.54618 0
M  V30 228 H 20.1124 0.699802 -0.261317 0
M  V30 229 H 22.7744 1.45574 -1.29592 0
M  V30 230 H 21.8704 2.95524 -1.0036 0
M  V30 231 N 22.1715 0.800033 1.35784 0
M  V30 232 C 23.4175 0.377901 1.99248 0
M  V30 233 C 23.7505 -1.05052 1.63333 0
M  V30 234 O 23.0255 -1.72768 0.893385 0
M  V30 235 C 23.3085 0.553922 3.55814 0
M  V30 236 C 23.1615 2.0268 4.01548 0
M  V30 237 C 24.4805 -0.0244802 4.40093 0
M  V30 238 H 21.5995 0.138782 0.723815 0
M  V30 239 H 24.2415 1.00835 1.61035 0
M  V30 240 H 22.3915 0.0172398 3.88496 0
M  V30 241 H 24.0635 2.62536 3.79305 0
M  V30 242 H 22.3065 2.5256 3.52698 0
M  V30 243 H 22.9775 2.10087 5.10458 0
M  V30 244 H 25.4535 0.433775 4.13833 0
M  V30 245 H 24.3295 0.128637 5.48749 0
M  V30 246 H 24.5905 -1.11758 4.27741 0
M  V30 247 N 23.6496 -1.47581 0.552962 0
M  V30 248 C 24.8976 -2.02082 0.0272703 0
M  V30 249 C 25.2186 -1.4301 -1.32563 0
M  V30 250 O 24.4886 -0.603745 -1.86365 0
M  V30 251 H 23.0686 -0.746966 0.00709182 0
M  V30 252 H 25.7306 -1.81033 0.722008 0
M  V30 253 H 24.8266 -3.12034 -0.0639951 0
M  V30 254 N 25.1277 -0.289203 -1.54924 0
M  V30 255 C 26.5437 0.0645403 -1.59469 0
M  V30 256 C 26.7437 1.53419 -1.30632 0
M  V30 257 O 25.7997 2.2852 -1.074 0
M  V30 258 C 27.1127 -0.32278 -2.98963 0
M  V30 259 C 28.6607 -0.270564 -3.11828 0
M  V30 260 C 29.1357 -0.632532 -4.53611 0
M  V30 261 N 30.6267 -0.584617 -4.59496 0
M  V30 262 C 31.3617 -0.837314 -5.67254 0
M  V30 263 N 30.8577 -1.15536 -6.83098 0
M  V30 264 N 32.6507 -0.765166 -5.56868 0
M  V30 265 H 24.8017 -1.24714 -1.71931 0
M  V30 266 H 27.0647 -0.504809 -0.802416 0
M  V30 267 H 26.7707 -1.34541 -3.24948 0
M  V30 268 H 26.6447 0.32944 -3.75759 0
M  V30 269 H 29.0317 0.742805 -2.85598 0
M  V30 270 H 29.1127 -0.957242 -2.37214 0
M  V30 271 H 28.7567 -1.64365 -4.80569 0
M  V30 272 H 28.6867 0.07609 -5.26545 0
M  V30 273 H 31.1777 -0.349248 -3.76283 0
M  V30 274 H 31.4907 -1.33447 -7.61191 0
M  V30 275 H 29.8357 -1.19328 -6.84679 0
M  V30 276 H 33.0267 -0.516432 -4.65243 0
M  V30 277 H 33.1997 -0.965477 -6.40767 0
M  V30 278 N 26.6058 1.57591 -0.0167156 0
M  V30 279 C 27.5688 2.08393 0.954204 0
M  V30 280 C 28.5688 0.996531 1.26198 0
M  V30 281 O 29.7588 1.25858 1.20438 0
M  V30 282 C 26.8908 2.5394 2.27436 0
M  V30 283 H 28.0838 2.95455 0.514451 0
M  V30 284 H 25.6368 1.54582 0.231089 0
M  V30 285 H 26.3718 1.70171 2.76066 0
M  V30 286 H 26.1568 3.33371 2.06412 0
M  V30 287 H 27.6468 2.93512 2.97053 0
M  V30 288 N 28.0839 -0.256276 1.55502 0
M  V30 289 C 29.3319 -0.983672 1.76545 0
M  V30 290 C 29.6529 -1.86206 0.578982 0
M  V30 291 O 28.9229 -1.91656 -0.405577 0
M  V30 292 H 27.5029 -0.366191 0.651086 0
M  V30 293 H 30.1649 -0.276479 1.92929 0
M  V30 294 H 29.2609 -1.61087 2.67315 0
M  V30 295 N 29.562 -1.4872 -0.521534 0
M  V30 296 C 30.787 -1.61101 -1.30618 0
M  V30 297 C 31.212 -0.274611 -1.86085 0
M  V30 298 O 30.57 0.754937 -1.64834 0
M  V30 299 C 30.618 -2.66709 -2.4269 0
M  V30 300 O 29.722 -2.24456 -3.45967 0
M  V30 301 H 29.063 -0.539921 -0.386499 0
M  V30 302 H 31.593 -1.94767 -0.626645 0
M  V30 303 H 31.603 -2.88245 -2.88754 0
M  V30 304 H 30.278 -3.63727 -2.01682 0
M  V30 305 H 28.855 -2.13168 -3.05964 0
M  V30 306 N 31.0401 0.771051 -1.3745 0
M  V30 307 C 32.2861 1.5319 -1.32894 0
M  V30 308 C 32.6191 1.94008 0.0862511 0
M  V30 309 O 31.8941 1.64124 1.04373 0
M  V30 310 C 32.1771 2.79648 -2.26868 0
M  V30 311 C 32.0301 2.45079 -3.77169 0
M  V30 312 C 33.3491 3.81583 -2.19277 0
M  V30 313 H 30.4681 0.555744 -0.484064 0
M  V30 314 H 33.1101 0.884492 -1.68157 0
M  V30 315 H 31.2601 3.34891 -1.96926 0
M  V30 316 H 32.9321 1.95745 -4.1771 0
M  V30 317 H 31.1751 1.77767 -3.95704 0
M  V30 318 H 31.8461 3.35478 -4.38359 0
M  V30 319 H 34.3221 3.35835 -2.45671 0
M  V30 320 H 33.1981 4.67787 -2.87171 0
M  V30 321 H 33.4591 4.25897 -1.18592 0
M  V30 322 N 32.5182 1.22032 0.997298 0
M  V30 323 C 33.9342 0.979326 1.26021 0
M  V30 324 C 34.1342 -0.32972 1.98784 0
M  V30 325 O 33.1902 -1.05345 2.29475 0
M  V30 326 C 34.5032 2.17509 2.07631 0
M  V30 327 C 36.0512 2.21817 2.2083 0
M  V30 328 C 36.5262 3.40933 3.05825 0
M  V30 329 N 38.0172 3.41067 3.13412 0
M  V30 330 C 38.7522 4.29885 3.79455 0
M  V30 331 N 38.2482 5.28914 4.47462 0
M  V30 332 N 40.0412 4.17673 3.76173 0
M  V30 333 H 32.1922 2.06202 0.509352 0
M  V30 334 H 34.4552 0.90334 0.287541 0
M  V30 335 H 34.1612 3.12415 1.61524 0
M  V30 336 H 34.0352 2.17206 3.08385 0
M  V30 337 H 36.4222 1.27462 2.66153 0
M  V30 338 H 36.5032 2.2616 1.1952 0
M  V30 339 H 36.1472 4.35586 2.61203 0
M  V30 340 H 36.0772 3.33829 4.07266 0
M  V30 341 H 38.5682 2.69406 2.65007 0
M  V30 342 H 38.8812 5.92973 4.95583 0
M  V30 343 H 37.2262 5.32831 4.46224 0
M  V30 344 H 40.4172 3.39564 3.22202 0
M  V30 345 H 40.5902 4.87098 4.27363 0
M  V30 346 N 33.9963 -1.19345 1.0293 0
M  V30 347 C 34.9293 -2.21347 0.555029 0
M  V30 348 C 35.9073 -1.57492 -0.404351 0
M  V30 349 O 37.0913 -1.85741 -0.321352 0
M  V30 350 C 34.2183 -3.38163 -0.19064 0
M  V30 351 C 33.2643 -4.20375 0.720236 0
M  V30 352 S 34.0973 -4.88371 2.19668 0
M  V30 353 C 35.2533 -6.08597 1.46153 0
M  V30 354 H 35.4863 -2.61235 1.41929 0
M  V30 355 H 33.0193 -1.29598 0.839272 0
M  V30 356 H 34.9773 -4.05871 -0.614724 0
M  V30 357 H 33.6383 -2.9671 -1.03063 0
M  V30 358 H 32.8313 -5.03793 0.14455 0
M  V30 359 H 32.4333 -3.57987 1.08266 0
M  V30 360 H 34.7253 -6.73354 0.748357 0
M  V30 361 H 35.6683 -6.7065 2.27233 0
M  V30 362 H 36.0763 -5.56297 0.958842 0
M  V30 363 N 35.4744 -0.807222 -1.35358 0
M  V30 364 C 36.8904 -0.491038 -1.51858 0
M  V30 365 C 37.0904 0.987648 -1.75635 0
M  V30 366 O 36.1464 1.77265 -1.79815 0
M  V30 367 C 37.4594 -1.33695 -2.69344 0
M  V30 368 C 39.0074 -1.33246 -2.83222 0
M  V30 369 C 39.4824 -2.1625 -4.03733 0
M  V30 370 N 40.9734 -2.1379 -4.10911 0
M  V30 371 C 41.7084 -2.74772 -5.03277 0
M  V30 372 N 41.2044 -3.44684 -6.0097 0
M  V30 373 N 42.9974 -2.6441 -4.96028 0
M  V30 374 H 35.1484 -1.76485 -1.18181 0
M  V30 375 H 37.4114 -0.751199 -0.578276 0
M  V30 376 H 37.1174 -2.38634 -2.58354 0
M  V30 377 H 36.9914 -0.990618 -3.6396 0
M  V30 378 H 39.3784 -0.290911 -2.93663 0
M  V30 379 H 39.4594 -1.71866 -1.89461 0
M  V30 380 H 39.1034 -3.20445 -3.94052 0
M  V30 381 H 39.0334 -1.74989 -4.96675 0
M  V30 382 H 41.5244 -1.62923 -3.40976 0
M  V30 383 H 41.8374 -3.88501 -6.68047 0
M  V30 384 H 40.1824 -3.48788 -6.01142 0
M  V30 385 H 43.3734 -2.0938 -4.18662 0
M  V30 386 H 43.5464 -3.12225 -5.6782 0
M  V30 387 N 36.9525 1.47285 -0.560781 0
M  V30 388 C 38.2295 1.9558 0.0277798 0
M  V30 389 C 38.6095 1.5034 1.48192 0
M  V30 390 O 37.9575 0.743882 2.16052 0
M  V30 391 C 38.1675 3.48789 -0.121418 0
M  V30 392 C 39.5155 4.24594 0.0220912 0
M  V30 393 O 40.5395 3.56166 -0.0491439 0
M  V30 394 O 39.3985 5.46217 0.175958 0
M  V30 395 H 36.4925 0.824663 0.0621342 0
M  V30 396 H 39.0385 1.5767 -0.627556 0
M  V30 397 H 37.8105 3.74533 -1.13316 0
M  V30 398 H 37.4335 3.93473 0.571366 0
M  V30 399 N 38.4306 0.297415 1.54768 0
M  V30 400 C 39.3606 -0.573494 2.26348 0
M  V30 401 C 40.3416 -1.14085 1.26169 0
M  V30 402 O 41.5266 -1.17086 1.54934 0
M  V30 403 C 38.6566 -1.74716 3.00153 0
M  V30 404 C 37.6106 -1.31032 4.07449 0
M  V30 405 C 36.9366 -2.56887 4.68949 0
M  V30 406 C 38.2366 -0.444183 5.20408 0
M  V30 407 H 39.9306 0.0235131 2.99391 0
M  V30 408 H 37.4766 0.0127488 1.43994 0
M  V30 409 H 39.4296 -2.3625 3.48947 0
M  V30 410 H 38.1536 -2.37035 2.24682 0
M  V30 411 H 36.8126 -0.718066 3.59499 0
M  V30 412 H 36.4606 -3.17512 3.90122 0
M  V30 413 H 36.1606 -2.2836 5.41411 0
M  V30 414 H 37.6846 -3.19229 5.20505 0
M  V30 415 H 39.0986 -0.9651 5.65118 0
M  V30 416 H 37.4956 -0.252846 5.99567 0
M  V30 417 H 38.5656 0.531609 4.81977 0
M  V30 418 N 39.9087 -1.5758 0.0250728 0
M  V30 419 C 41.3247 -1.56124 -0.331282 0
M  V30 420 C 41.5247 -1.03029 -1.73169 0
M  V30 421 O 40.5807 -0.675215 -2.43305 0
M  V30 422 C 41.8937 -3.00139 -0.183584 0
M  V30 423 C 43.4417 -3.11946 -0.256654 0
M  V30 424 C 43.9167 -4.57793 -0.137792 0
M  V30 425 N 45.4077 -4.6279 -0.194904 0
M  V30 426 C 46.1427 -5.7326 -0.126655 0
M  V30 427 N 45.6387 -6.928 -0.00755288 0
M  V30 428 N 47.4317 -5.61811 -0.180348 0
M  V30 429 H 39.5827 -1.90424 0.94087 0
M  V30 430 H 41.8457 -0.875761 0.362968 0
M  V30 431 H 41.5517 -3.4292 0.780927 0
M  V30 432 H 41.4257 -3.64899 -0.955448 0
M  V30 433 H 43.8127 -2.69079 -1.21162 0
M  V30 434 H 43.8937 -2.49915 0.545517 0
M  V30 435 H 43.5377 -5.01339 0.813739 0
M  V30 436 H 43.4677 -5.17798 -0.958775 0
M  V30 437 H 45.9587 -3.76807 -0.287267 0
M  V30 438 H 46.2717 -7.72791 0.0379428 0
M  V30 439 H 44.6167 -6.94995 0.0271731 0
M  V30 440 H 47.8077 -4.6731 -0.271767 0
M  V30 441 H 47.9807 -6.47882 -0.123697 0
M  V30 442 N 41.3868 0.248026 -1.55636 0
M  V30 443 C 42.3348 1.32683 -1.91045 0
M  V30 444 C 43.3288 1.49883 -0.789401 0
M  V30 445 O 44.5348 1.51371 -0.974007 0
M  V30 446 H 40.9098 0.444272 -0.606734 0
M  V30 447 H 42.8808 1.00085 -2.81115 0
M  V30 448 C 41.6298 2.6755 -2.22064 0
M  V30 449 H 40.9528 2.55114 -3.07826 0
M  V30 450 H 42.3928 3.41912 -2.50743 0
M  V30 451 C 40.8518 3.20556 -1.0366 0
M  V30 452 O 41.3818 4.00695 -0.284016 0
M  V30 453 N 39.5878 2.78568 -0.82753 0
M  V30 454 H 39.1348 2.1351 -1.44123 0
M  V30 455 H 39.0928 3.14378 -0.0369803 0
M  V30 456 N 42.8649 1.48995 0.513639 0
M  V30 457 C 44.2759 1.5119 1.09537 0
M  V30 458 C 44.6269 0.290906 1.94031 0
M  V30 459 O 43.7519 -0.60049 2.07902 0
M  V30 460 C 44.3469 2.73964 1.99322 0
M  V30 461 C 42.9059 2.78978 2.52682 0
M  V30 462 C 42.0529 2.44934 1.30009 0
M  V30 463 H 45.0039 1.55875 0.298125 0
M  V30 464 H 45.0249 2.53409 2.83838 0
M  V30 465 H 44.5369 3.62813 1.37799 0
M  V30 466 H 42.6379 1.94378 3.1788 0
M  V30 467 H 42.7509 3.8083 2.90698 0
M  V30 468 H 41.1149 1.9644 1.62122 0
M  V30 469 H 41.8979 3.36043 0.702131 0
M  V30 470 N 44.343 -0.763751 1.37857 0
M  V30 471 C 45.293 -1.86765 1.30777 0
M  V30 472 C 46.277 -1.59726 0.194015 0
M  V30 473 O 47.469 -1.7172 0.42911 0
M  V30 474 C 44.598 -3.24343 1.12502 0
M  V30 475 C 43.684 -3.57307 2.28456 0
M  V30 476 N 44.075 -3.61398 3.53871 0
M  V30 477 C 42.373 -3.87517 2.20786 0
M  V30 478 C 43.074 -3.91339 4.30382 0
M  V30 479 N 42.05 -4.07649 3.59615 0
M  V30 480 H 45.852 -1.88191 2.25746 0
M  V30 481 H 43.366 -0.9606 1.30944 0
M  V30 482 H 45.363 -4.03327 1.05514 0
M  V30 483 H 44.023 -3.24175 0.184574 0
M  V30 484 H 45.034 -3.43407 3.87675 0
M  V30 485 H 41.711 -3.95125 1.34844 0
M  V30 486 H 43.101 -4.01213 5.3896 0
M  V30 487 N 45.8211 -1.22559 -0.990812 0
M  V30 488 C 47.2321 -1.04791 -1.54518 0
M  V30 489 C 47.5831 0.387998 -1.92325 0
M  V30 490 O 46.7081 1.27328 -1.74976 0
M  V30 491 C 47.3031 -1.896 -2.80779 0
M  V30 492 C 45.8621 -1.76124 -3.32652 0
M  V30 493 C 45.0091 -1.8594 -2.05722 0
M  V30 494 H 47.9601 -1.36374 -0.811662 0
M  V30 495 H 47.9811 -1.41464 -3.53225 0
M  V30 496 H 47.4931 -2.94101 -2.53231 0
M  V30 497 H 45.5941 -0.743643 -3.65104 0
M  V30 498 H 45.7071 -2.58913 -4.03114 0
M  V30 499 H 44.0711 -1.29403 -2.19379 0
M  V30 500 H 44.8541 -2.91976 -1.80568 0
M  V30 501 N 47.2992 1.18797 -1.03562 0
M  V30 502 C 48.5242 1.9314 -0.755764 0
M  V30 503 C 48.9492 1.7537 0.68022 0
M  V30 504 O 48.3072 1.06046 1.47051 0
M  V30 505 C 48.3552 3.42747 -1.12058 0
M  V30 506 O 47.4592 4.11683 -0.243124 0
M  V30 507 H 46.8002 0.602724 -0.278604 0
M  V30 508 H 49.3302 1.50678 -1.3841 0
M  V30 509 H 49.3402 3.93437 -1.08035 0
M  V30 510 H 48.0152 3.55002 -2.16672 0
M  V30 511 H 46.5922 3.71323 -0.342539 0
M  V30 512 N 48.7773 0.814389 1.34928 0
M  V30 513 C 50.0023 0.410097 2.03305 0
M  V30 514 C 50.4273 -0.973464 1.60951 0
M  V30 515 O 49.7853 -1.63185 0.789964 0
M  V30 516 C 49.8333 0.51049 3.56968 0
M  V30 517 O 48.9373 -0.473035 4.09678 0
M  V30 518 H 48.2783 0.170088 0.641846 0
M  V30 519 H 50.8083 1.10244 1.72358 0
M  V30 520 H 50.8183 0.383135 4.06197 0
M  V30 521 H 49.4933 1.51963 3.87144 0
M  V30 522 H 48.0703 -0.305272 3.71648 0
M  V30 523 N 50.2554 -1.46986 0.568584 0
M  V30 524 C 51.2184 -2.28624 -0.162366 0
M  V30 525 C 52.2184 -1.37596 -0.832103 0
M  V30 526 O 53.4084 -1.60115 -0.68622 0
M  V30 527 C 50.5404 -3.17596 -1.23878 0
M  V30 528 H 51.7334 -2.94722 0.554899 0
M  V30 529 H 49.2864 -1.52863 0.325976 0
M  V30 530 H 50.0214 -2.56214 -1.98808 0
M  V30 531 H 49.8064 -3.846 -0.763219 0
M  V30 532 H 51.2964 -3.79078 -1.75185 0
M  V30 533 N 51.7335 -0.305618 -1.54608 0
M  V30 534 C 52.9805 0.302298 -2.00231 0
M  V30 535 C 53.3085 1.5354 -1.19398 0
M  V30 536 O 52.5635 1.93973 -0.259423 0
M  V30 537 C 52.8625 0.698983 -3.50498 0
M  V30 538 C 52.5285 -0.432903 -4.48817 0
M  V30 539 C 51.1905 -0.743622 -4.75419 0
M  V30 540 C 53.5425 -1.19409 -5.07337 0
M  V30 541 C 50.8705 -1.81857 -5.57804 0
M  V30 542 C 53.2225 -2.25899 -5.90891 0
M  V30 543 C 51.8865 -2.57572 -6.15803 0
M  V30 544 H 51.1565 0.110619 -0.732697 0
M  V30 545 H 53.8035 -0.425674 -1.86709 0
M  V30 546 H 52.1085 1.50711 -3.61654 0
M  V30 547 H 53.8055 1.1806 -3.83227 0
M  V30 548 H 50.3955 -0.18063 -4.28219 0
M  V30 549 H 54.5795 -0.967295 -4.86782 0
M  V30 550 H 49.8355 -2.06864 -5.75341 0
M  V30 551 H 54.0095 -2.85335 -6.35261 0
M  V30 552 H 51.6365 -3.40998 -6.7943 0
M  V30 553 N 53.2116 1.57565 -0.0334293 0
M  V30 554 C 54.1416 2.13511 0.945265 0
M  V30 555 C 55.1226 1.05231 1.33643 0
M  V30 556 O 56.3076 1.33084 1.41429 0
M  V30 557 C 53.4376 2.6657 2.22616 0
M  V30 558 C 52.3916 3.79676 1.97561 0
M  V30 559 C 51.7176 4.1918 3.31952 0
M  V30 560 C 53.0176 5.0557 1.31135 0
M  V30 561 H 54.7116 2.95538 0.479325 0
M  V30 562 H 52.2576 1.42166 0.229115 0
M  V30 563 H 54.2106 3.04344 2.91466 0
M  V30 564 H 52.9346 1.8171 2.71384 0
M  V30 565 H 51.5936 3.42347 1.31127 0
M  V30 566 H 51.2416 3.31296 3.78487 0
M  V30 567 H 50.9416 4.95402 3.15992 0
M  V30 568 H 52.4656 4.59541 4.02063 0
M  V30 569 H 53.8796 5.40903 1.89992 0
M  V30 570 H 52.2766 5.86818 1.25559 0
M  V30 571 H 53.3466 4.84062 0.284894 0
M  V30 572 N 54.6897 -0.239769 1.55765 0
M  V30 573 C 55.6377 -1.31668 1.91745 0
M  V30 574 C 56.6317 -1.49462 0.797338 0
M  V30 575 O 57.8377 -1.50852 0.982021 0
M  V30 576 H 54.2127 -0.441048 0.609082 0
M  V30 577 H 56.1837 -0.985923 2.81642 0
M  V30 578 C 54.9327 -2.66368 2.2348 0
M  V30 579 H 54.2557 -2.53478 3.09175 0
M  V30 580 H 55.6957 -3.40578 2.52553 0
M  V30 581 C 54.1547 -3.20002 1.05359 0
M  V30 582 O 54.6847 -4.00538 0.305261 0
M  V30 583 N 52.8907 -2.78126 0.842292 0
M  V30 584 H 52.4377 -2.12742 1.45253 0
M  V30 585 H 52.3957 -3.14354 0.053652 0
M  V30 586 N 56.1678 -1.49265 -0.50573 0
M  V30 587 C 57.0978 -1.68495 -1.61653 0
M  V30 588 C 58.0788 -0.53366 -1.61512 0
M  V30 589 O 59.2638 -0.76897 -1.78327 0
M  V30 590 C 56.3938 -1.74709 -3.00157 0
M  V30 591 C 55.3478 -2.89581 -3.15162 0
M  V30 592 C 54.6738 -2.80903 -4.5497 0
M  V30 593 C 55.9738 -4.30578 -2.95634 0
M  V30 594 H 57.6678 -2.61493 -1.45814 0
M  V30 595 H 55.2138 -1.25838 -0.70005 0
M  V30 596 H 57.1668 -1.86748 -3.77761 0
M  V30 597 H 55.8908 -0.783067 -3.17074 0
M  V30 598 H 54.5498 -2.77136 -2.39982 0
M  V30 599 H 54.1978 -1.82419 -4.68756 0
M  V30 600 H 53.8978 -3.57999 -4.65951 0
M  V30 601 H 55.4218 -2.94944 -5.34641 0
M  V30 602 H 56.8358 -4.4373 -3.63011 0
M  V30 603 H 55.2328 -5.0886 -3.18091 0
M  V30 604 H 56.3028 -4.45352 -1.91806 0
M  V30 605 N 57.6459 0.756429 -1.3826 0
M  V30 606 C 58.8949 1.51082 -1.3363 0
M  V30 607 C 59.2079 1.95467 0.0720068 0
M  V30 608 O 60.4139 2.7043 0.240834 0
M  V30 609 C 58.8699 2.72893 -2.34644 0
M  V30 610 C 58.4779 2.35544 -3.81081 0
M  V30 611 C 60.2219 3.50791 -2.39052 0
M  V30 612 C 58.1289 3.53948 -4.73787 0
M  V30 613 H 57.0589 0.56727 -0.49671 0
M  V30 614 H 59.7099 0.827147 -1.638 0
M  V30 615 H 58.0919 3.43227 -1.97513 0
M  V30 616 H 59.2659 1.72894 -4.27135 0
M  V30 617 H 57.5809 1.70786 -3.79764 0
M  V30 618 H 60.1779 4.38823 -3.05513 0
M  V30 619 H 60.5209 3.91745 -1.40861 0
M  V30 620 H 61.0539 2.87467 -2.74968 0
M  V30 621 H 57.7929 3.18064 -5.73163 0
M  V30 622 H 57.3129 4.15651 -4.32428 0
M  V30 623 H 58.9919 4.20566 -4.91663 0
M  V30 624 N 59.124 1.23083 0.984299 0
M  V30 625 C 60.372 1.05848 1.72165 0
M  V30 626 C 60.693 -0.406049 1.90726 0
M  V30 627 O 59.963 -1.29139 1.47309 0
M  V30 628 H 58.543 0.388685 0.637913 0
M  V30 629 H 61.205 1.54736 1.18503 0
M  V30 630 H 60.301 1.54327 2.71274 0
M  V30 631 N 60.6021 -1.18246 1.0419 0
M  V30 632 C 61.8491 -1.88257 0.746017 0
M  V30 633 C 62.1771 -1.80429 -0.726331 0
M  V30 634 O 61.4321 -1.2 -1.54591 0
M  V30 635 C 61.7311 -3.38082 1.15911 0
M  V30 636 C 61.3971 -3.66114 2.63195 0
M  V30 637 C 60.0591 -3.73474 3.03432 0
M  V30 638 C 62.4111 -3.78398 3.5842 0
M  V30 639 C 59.7391 -3.90599 4.37778 0
M  V30 640 C 62.0911 -3.97039 4.92487 0
M  V30 641 C 60.7551 -4.02635 5.32392 0
M  V30 642 H 60.0251 -0.688883 0.272987 0
M  V30 643 H 62.6721 -1.3995 1.30715 0
M  V30 644 H 60.9771 -3.88377 0.516806 0
M  V30 645 H 62.6741 -3.90596 0.907516 0
M  V30 646 H 59.2641 -3.61003 2.3103 0
M  V30 647 H 63.4481 -3.72042 3.28479 0
M  V30 648 H 58.7041 -3.93175 4.68213 0
M  V30 649 H 62.8781 -4.05486 5.66175 0
M  V30 650 H 60.5051 -4.15657 6.36501 0
M  V30 651 N 62.0802 -0.821533 -1.34494 0
M  V30 652 C 63.3262 -0.409552 -1.98622 0
M  V30 653 C 63.6592 1.0244 -1.64984 0
M  V30 654 O 62.9342 1.71325 -0.920758 0
M  V30 655 C 63.2172 -0.610458 -3.54888 0
M  V30 656 C 63.0702 -2.09043 -3.98273 0
M  V30 657 C 64.3892 -0.0455379 -4.40076 0
M  V30 658 H 61.5082 -0.15028 -0.721516 0
M  V30 659 H 64.1502 -1.03384 -1.59411 0
M  V30 660 H 62.3002 -0.079044 -3.8842 0
M  V30 661 H 63.9722 -2.68537 -3.75081 0
M  V30 662 H 62.2152 -2.58139 -3.48635 0
M  V30 663 H 62.8862 -2.18182 -5.07051 0
M  V30 664 H 65.3622 -0.499557 -4.1309 0
M  V30 665 H 64.2382 -0.215922 -5.48475 0
M  V30 666 H 64.4992 1.04939 -4.29465 0
M  V30 667 N 63.5583 1.46682 -0.576371 0
M  V30 668 C 64.7833 2.07304 -0.0630475 0
M  V30 669 C 65.2083 1.42329 1.2298 0
M  V30 670 O 64.5663 0.504865 1.74129 0
M  V30 671 C 64.6143 3.60472 0.095895 0
M  V30 672 O 63.7183 3.95927 1.15394 0
M  V30 673 H 63.0593 0.661288 -0.0599463 0
M  V30 674 H 65.5893 1.88417 -0.797511 0
M  V30 675 H 65.5993 4.06865 0.304071 0
M  V30 676 H 64.2743 4.07157 -0.84828 0
M  V30 677 H 62.8513 3.61252 0.924724 0
M  V30 678 N 65.0364 0.313813 1.54444 0
M  V30 679 C 66.4524 -0.0391619 1.59552 0
M  V30 680 C 66.6524 -1.51322 1.33056 0
M  V30 681 O 65.7084 -2.26782 1.11022 0
M  V30 682 C 67.0214 0.370302 2.98411 0
M  V30 683 C 68.5694 0.320139 3.11358 0
M  V30 684 C 69.0444 0.704617 4.52547 0
M  V30 685 N 70.5354 0.657645 4.58508 0
M  V30 686 C 71.2704 0.927453 5.6585 0
M  V30 687 N 70.7664 1.26389 6.81174 0
M  V30 688 N 72.5594 0.853662 5.5558 0
M  V30 689 H 64.7104 1.27433 1.69925 0
M  V30 690 H 66.9734 0.517511 0.794284 0
M  V30 691 H 66.6794 1.39694 3.22767 0
M  V30 692 H 66.5534 -0.269619 3.76235 0
M  V30 693 H 68.9404 -0.697275 2.86744 0
M  V30 694 H 69.0214 0.99486 2.35661 0
M  V30 695 H 68.6654 1.7199 4.77893 0
M  V30 696 H 68.5954 0.00768843 5.26599 0
M  V30 697 H 71.0864 0.409067 3.75679 0
M  V30 698 H 71.3994 1.4554 7.58972 0
M  V30 699 H 69.7444 1.30206 6.82694 0
M  V30 700 H 72.9354 0.590383 4.64362 0
M  V30 701 H 73.1084 1.0673 6.3915 0
M  V30 702 N 66.5145 -1.57545 0.0417849 0
M  V30 703 C 67.9305 -1.56467 -0.314704 0
M  V30 704 C 68.1305 -1.04859 -1.72066 0
M  V30 705 O 67.1865 -0.700983 -2.42575 0
M  V30 706 C 68.4995 -3.00317 -0.15174 0
M  V30 707 C 70.0475 -3.12201 -0.223553 0
M  V30 708 C 70.5225 -4.57913 -0.0892295 0
M  V30 709 N 72.0135 -4.6297 -0.145808 0
M  V30 710 C 72.7485 -5.73362 -0.0658459 0
M  V30 711 N 72.2445 -6.92769 0.0659282 0
M  V30 712 N 74.0375 -5.6197 -0.12075 0
M  V30 713 H 66.1885 -1.89416 0.961014 0
M  V30 714 H 68.4515 -0.871862 0.372237 0
M  V30 715 H 68.1575 -3.42073 0.817254 0
M  V30 716 H 68.0315 -3.65892 -0.916692 0
M  V30 717 H 70.4185 -2.70349 -1.18301 0
M  V30 718 H 70.4995 -2.49323 0.571994 0
M  V30 719 H 70.1435 -5.00448 0.866867 0
M  V30 720 H 70.0735 -5.18786 -0.903802 0
M  V30 721 H 72.5645 -3.7709 -0.247286 0
M  V30 722 H 72.8775 -7.72707 0.119905 0
M  V30 723 H 71.2225 -6.94927 0.100885 0
M  V30 724 H 74.4135 -4.67572 -0.222187 0
M  V30 725 H 74.5865 -6.47977 -0.0549735 0
M  V30 726 N 67.9926 0.231505 -1.5589 0
M  V30 727 C 68.9026 1.308 -1.94752 0
M  V30 728 C 69.9186 1.51826 -0.849989 0
M  V30 729 O 71.0946 1.6515 -1.15271 0
M  V30 730 C 68.1596 2.63968 -2.24771 0
M  V30 731 C 67.2206 2.51331 -3.48039 0
M  V30 732 C 66.4536 3.78148 -3.76616 0
M  V30 733 O 66.6766 4.80722 -3.07022 0
M  V30 734 O 65.6106 3.75857 -4.70123 0
M  V30 735 H 69.4366 1.0083 -2.86474 0
M  V30 736 H 67.0216 0.433547 -1.42971 0
M  V30 737 H 68.9036 3.42633 -2.45318 0
M  V30 738 H 67.5786 2.9364 -1.36225 0
M  V30 739 H 66.4856 1.709 -3.32782 0
M  V30 740 H 67.8186 2.26601 -4.36936 0
M  V30 741 N 69.4707 1.49531 0.497807 0
M  V30 742 C 70.4007 1.6935 1.60757 0
M  V30 743 C 71.3817 0.542218 1.61227 0
M  V30 744 O 72.5667 0.778417 1.77917 0
M  V30 745 C 69.6967 1.76298 2.99226 0
M  V30 746 C 68.6507 2.91248 3.13622 0
M  V30 747 C 67.9767 2.83312 4.53474 0
M  V30 748 C 69.2767 4.3214 2.93346 0
M  V30 749 H 70.9707 2.62263 1.44425 0
M  V30 750 H 68.5167 1.26208 0.693367 0
M  V30 751 H 70.4697 1.88749 3.76765 0
M  V30 752 H 69.1937 0.799871 3.16654 0
M  V30 753 H 67.8527 2.78404 2.38509 0
M  V30 754 H 67.5007 1.84902 4.67782 0
M  V30 755 H 67.2007 3.60465 4.64046 0
M  V30 756 H 68.7247 2.97775 5.33069 0
M  V30 757 H 70.1387 4.45649 3.60652 0
M  V30 758 H 68.5357 5.1054 3.15387 0
M  V30 759 H 69.6057 4.46363 1.89441 0
M  V30 760 N 70.9488 -0.749086 1.3866 0
M  V30 761 C 72.1968 -1.50535 1.34847 0
M  V30 762 C 72.5178 -1.94909 -0.0595016 0
M  V30 763 O 71.7878 -1.67973 -1.00806 0
M  V30 764 H 70.3678 -0.558395 0.49619 0
M  V30 765 H 73.0298 -0.890165 1.73384 0
M  V30 766 H 72.1258 -2.39413 2.00219 0
M  V30 767 N 72.4269 -1.23603 -0.977757 0
M  V30 768 C 73.6519 -1.09735 -1.75991 0
M  V30 769 C 74.0769 0.346858 -1.84874 0
M  V30 770 O 73.4349 1.25093 -1.3123 0
M  V30 771 C 73.4829 -1.73051 -3.16363 0
M  V30 772 O 72.5869 -0.994452 -4.0023 0
M  V30 773 H 71.9279 -0.384476 -0.541364 0
M  V30 774 H 74.4579 -1.6371 -1.2272 0
M  V30 775 H 74.4679 -1.78398 -3.66931 0
M  V30 776 H 73.1429 -2.78137 -3.09213 0
M  V30 777 H 71.7199 -1.01812 -3.58732 0
M  V30 778 N 73.905 1.17692 -1.04816 0
M  V30 779 C 75.154 1.87192 -0.751132 0
M  V30 780 C 75.467 1.8169 0.724441 0
M  V30 781 O 76.673 2.46625 1.13527 0
M  V30 782 C 75.129 3.35857 -1.29338 0
M  V30 783 C 74.737 3.4987 -2.79812 0
M  V30 784 C 76.481 4.10709 -1.07322 0
M  V30 785 C 74.388 4.92536 -3.27356 0
M  V30 786 H 73.318 0.701162 -0.277288 0
M  V30 787 H 75.969 1.32932 -1.26496 0
M  V30 788 H 74.351 3.89631 -0.707376 0
M  V30 789 H 75.525 3.06332 -3.44235 0
M  V30 790 H 73.84 2.88433 -3.00325 0
M  V30 791 H 76.437 5.15952 -1.4035 0
M  V30 792 H 76.78 4.16299 -0.0108001 0
M  V30 793 H 77.313 3.6313 -1.62423 0
M  V30 794 H 74.052 4.92119 -4.33012 0
M  V30 795 H 73.572 5.3676 -2.67673 0
M  V30 796 H 75.251 5.61288 -3.21815 0
M  V30 797 N 75.3831 0.828654 1.34056 0
M  V30 798 C 76.6601 0.341809 1.9259 0
M  V30 799 C 77.0401 -1.17158 1.75605 0
M  V30 800 O 76.3881 -1.98132 1.13824 0
M  V30 801 C 76.5981 0.777453 3.4023 0
M  V30 802 C 77.9461 0.779579 4.17382 0
M  V30 803 O 78.9701 0.7204 3.48839 0
M  V30 804 O 77.8291 0.857996 5.39723 0
M  V30 805 H 74.9231 0.0946085 0.821571 0
M  V30 806 H 77.4691 0.913827 1.42994 0
M  V30 807 H 76.2411 1.8196 3.46419 0
M  V30 808 H 75.8641 0.181444 3.97186 0
M  V30 809 N 76.8612 -1.46375 0.584142 0
M  V30 810 C 78.1092 -2.01978 0.0701287 0
M  V30 811 C 78.4302 -1.4579 -1.295 0
M  V30 812 O 77.7002 -0.64314 -1.85042 0
M  V30 813 H 76.2802 -0.746648 0.0229345 0
M  V30 814 H 78.9422 -1.79461 0.760245 0
M  V30 815 H 78.0382 -3.121 0.0022064 0
M  V30 816 N 78.3393 -0.321999 -1.54275 0
M  V30 817 C 79.5853 0.281461 -2.00837 0
M  V30 818 C 79.9183 1.51909 -1.20985 0
M  V30 819 O 79.1933 1.923 -0.291733 0
M  V30 820 C 79.4763 0.617162 -3.54772 0
M  V30 821 C 79.3293 -0.631064 -4.45351 0
M  V30 822 C 80.6483 1.43542 -4.16033 0
M  V30 823 H 77.7673 0.100826 -0.730071 0
M  V30 824 H 80.4093 -0.438268 -1.84876 0
M  V30 825 H 78.5593 1.23034 -3.68504 0
M  V30 826 H 80.2313 -1.26934 -4.43492 0
M  V30 827 H 78.4743 -1.26025 -4.15091 0
M  V30 828 H 79.1453 -0.351735 -5.50878 0
M  V30 829 H 81.6213 0.917134 -4.05867 0
M  V30 830 H 80.4973 1.63907 -5.23856 0
M  V30 831 H 80.7583 2.43108 -3.69257 0
M  V30 832 N 79.8174 1.5752 -0.0501392 0
M  V30 833 C 80.7494 2.08413 0.95376 0
M  V30 834 C 81.7624 1.01175 1.27544 0
M  V30 835 O 82.9514 1.28744 1.23641 0
M  V30 836 C 80.0514 2.51138 2.27559 0
M  V30 837 C 79.2244 3.817 2.13598 0
M  V30 838 C 78.2834 4.10749 3.28895 0
M  V30 839 O 77.3094 4.80685 3.04845 0
M  V30 840 N 78.5114 3.62579 4.5334 0
M  V30 841 H 81.2764 2.95165 0.519383 0
M  V30 842 H 78.8374 1.61327 0.136127 0
M  V30 843 H 80.8294 2.67648 3.03557 0
M  V30 844 H 79.3994 1.6964 2.62567 0
M  V30 845 H 78.6194 3.74782 1.22197 0
M  V30 846 H 79.9074 4.67201 2.01496 0
M  V30 847 H 79.3054 3.06039 4.75769 0
M  V30 848 H 77.8624 3.84329 5.26436 0
M  V30 849 N 81.2955 -0.223234 1.56011 0
M  V30 850 C 82.2275 -1.30006 1.88762 0
M  V30 851 C 83.2405 -1.43129 0.775746 0
M  V30 852 O 84.4295 -1.44057 1.05403 0
M  V30 853 C 81.5295 -2.67589 2.07965 0
M  V30 854 C 80.7025 -2.76434 3.38973 0
M  V30 855 C 79.7615 -3.95019 3.47629 0
M  V30 856 O 78.7875 -3.83436 4.20672 0
M  V30 857 N 79.9895 -5.09249 2.78649 0
M  V30 858 H 82.7545 -1.02238 2.81722 0
M  V30 859 H 80.3155 -0.413278 1.56536 0
M  V30 860 H 82.3075 -3.45297 2.11073 0
M  V30 861 H 80.8775 -2.87964 1.21638 0
M  V30 862 H 80.0975 -1.85216 3.47978 0
M  V30 863 H 81.3855 -2.79313 4.25278 0
M  V30 864 H 80.7835 -5.21556 2.19081 0
M  V30 865 H 79.3405 -5.85007 2.8742 0
M  V30 866 N 82.7736 -1.49793 -0.48987 0
M  V30 867 C 84.0226 -1.59085 -1.23995 0
M  V30 868 C 84.3356 -0.287907 -1.9347 0
M  V30 869 O 85.5416 -0.259506 -2.70257 0
M  V30 870 C 83.9976 -2.80736 -2.252 0
M  V30 871 C 83.6056 -4.17833 -1.61614 0
M  V30 872 C 85.3496 -2.99364 -3.00967 0
M  V30 873 C 83.2566 -5.30693 -2.60996 0
M  V30 874 H 82.1866 -0.592372 -0.466488 0
M  V30 875 H 84.8376 -1.76197 -0.51252 0
M  V30 876 H 83.2196 -2.57142 -3.01154 0
M  V30 877 H 84.3936 -4.51608 -0.915774 0
M  V30 878 H 82.7086 -4.04656 -0.981977 0
M  V30 879 H 85.3056 -3.80851 -3.75308 0
M  V30 880 H 85.6486 -2.10356 -3.59244 0
M  V30 881 H 86.1816 -3.2305 -2.32128 0
M  V30 882 H 82.9206 -6.21796 -2.07485 0
M  V30 883 H 82.4406 -5.01359 -3.2924 0
M  V30 884 H 84.1196 -5.6049 -3.23202 0
M  V30 885 N 84.2517 0.741722 -1.39055 0
M  V30 886 C 85.4767 1.53607 -1.39354 0
M  V30 887 C 85.9017 1.88096 0.0116905 0
M  V30 888 O 85.2597 1.5143 0.996924 0
M  V30 889 C 85.3077 2.80441 -2.26682 0
M  V30 890 O 84.4117 3.76088 -1.69208 0
M  V30 891 H 83.7527 0.464142 -0.474835 0
M  V30 892 H 86.2827 0.915665 -1.82967 0
M  V30 893 H 86.2927 3.29246 -2.40959 0
M  V30 894 H 84.9677 2.5467 -3.2881 0
M  V30 895 H 83.5447 3.34833 -1.64138 0
M  V30 896 N 85.7298 1.2412 0.971189 0
M  V30 897 C 86.6598 1.05508 2.08304 0
M  V30 898 C 87.6408 -0.0308864 1.70072 0
M  V30 899 O 88.8258 0.135521 1.93727 0
M  V30 900 C 85.9558 0.655365 3.4106 0
M  V30 901 C 84.9098 1.68971 3.93234 0
M  V30 902 C 84.2358 1.14516 5.22293 0
M  V30 903 C 85.5358 3.08487 4.21465 0
M  V30 904 H 87.2298 1.98507 2.24132 0
M  V30 905 H 84.7758 0.955821 1.07704 0
M  V30 906 H 86.7288 0.51217 4.18276 0
M  V30 907 H 85.4528 -0.31032 3.25122 0
M  V30 908 H 84.1118 1.82106 3.18171 0
M  V30 909 H 83.7598 0.170189 5.02712 0
M  V30 910 H 83.4598 1.83635 5.58168 0
M  V30 911 H 84.9838 1.01401 6.02121 0
M  V30 912 H 86.3978 2.98601 4.89398 0
M  V30 913 H 84.7948 3.74926 4.68562 0
M  V30 914 H 85.8648 3.56787 3.28376 0
M  V30 915 N 87.2079 -1.17134 1.05439 0
M  V30 916 C 88.1179 -2.24878 0.668365 0
M  V30 917 C 89.1339 -1.71186 -0.311687 0
M  V30 918 O 90.3099 -2.00738 -0.163161 0
M  V30 919 C 87.3749 -3.46662 0.051648 0
M  V30 920 C 86.4359 -4.15429 1.08246 0
M  V30 921 C 85.6689 -5.31399 0.495082 0
M  V30 922 O 85.8919 -5.66153 -0.694743 0
M  V30 923 O 84.8259 -5.89187 1.23056 0
M  V30 924 H 88.6519 -2.60189 1.56637 0
M  V30 925 H 86.2369 -1.24482 0.826104 0
M  V30 926 H 88.1189 -4.20394 -0.290966 0
M  V30 927 H 86.7939 -3.13142 -0.819971 0
M  V30 928 H 85.7009 -3.43704 1.47711 0
M  V30 929 H 87.0339 -4.52982 1.92532 0
M  V30 930 N 88.686 -0.835752 -1.33615 0
M  V30 931 C 89.963 -0.352017 -1.92406 0
M  V30 932 C 90.343 1.16225 -1.76224 0
M  V30 933 O 89.691 1.97526 -1.14873 0
M  V30 934 C 89.901 -0.795485 -3.39813 0
M  V30 935 C 91.249 -0.801703 -4.16963 0
M  V30 936 O 92.273 -0.738889 -3.48452 0
M  V30 937 O 91.132 -0.886607 -5.3926 0
M  V30 938 H 88.226 -0.0989641 -0.821057 0
M  V30 939 H 90.772 -0.921397 -1.42507 0
M  V30 940 H 89.544 -1.83795 -3.45449 0
M  V30 941 H 89.167 -0.202505 -3.97084 0
M  V30 942 N 90.1641 1.46063 -0.591896 0
M  V30 943 C 91.1271 2.28854 0.125973 0
M  V30 944 C 92.1271 1.38903 0.810107 0
M  V30 945 O 93.3171 1.61186 0.66066 0
M  V30 946 C 90.4491 3.19526 1.1881 0
M  V30 947 H 91.6421 2.93802 -0.601717 0
M  V30 948 H 89.1951 1.52325 -0.350254 0
M  V30 949 H 89.9301 2.59345 1.94707 0
M  V30 950 H 89.7151 3.85766 0.701936 0
M  V30 951 H 91.2051 3.81817 1.69132 0
M  V30 952 N 91.6422 0.330177 1.54103 0
M  V30 953 C 92.5722 -0.525353 2.27513 0
M  V30 954 C 93.5532 -1.11383 1.2856 0
M  V30 955 O 94.7382 -1.13773 1.57383 0
M  V30 956 C 91.8682 -1.6831 3.03791 0
M  V30 957 C 90.8222 -1.2236 4.10137 0
M  V30 958 C 90.1482 -2.46882 4.74293 0
M  V30 959 C 91.4482 -0.333697 5.21233 0
M  V30 960 H 93.1422 0.087013 2.99274 0
M  V30 961 H 90.6882 0.0432893 1.43935 0
M  V30 962 H 92.6412 -2.28795 3.5388 0
M  V30 963 H 91.3652 -2.32216 2.29659 0
M  V30 964 H 90.0242 -0.64165 3.60941 0
M  V30 965 H 89.6722 -3.09165 3.96769 0
M  V30 966 H 89.3722 -2.16825 5.46133 0
M  V30 967 H 90.8962 -3.08117 5.27159 0
M  V30 968 H 92.3102 -0.845013 5.67038 0
M  V30 969 H 90.7072 -0.125612 5.99969 0
M  V30 970 H 91.7772 0.633724 4.80741 0
M  V30 971 N 93.1203 -1.57491 0.0584922 0
M  V30 972 C 94.3453 -1.97711 -0.62652 0
M  V30 973 C 94.7703 -0.936132 -1.63151 0
M  V30 974 O 94.1283 0.099811 -1.81025 0
M  V30 975 C 94.1763 -3.36989 -1.28338 0
M  V30 976 O 93.2803 -3.35433 -2.39913 0
M  V30 977 H 92.6213 -0.643868 -0.162266 0
M  V30 978 H 95.1513 -2.04193 0.129064 0
M  V30 979 H 95.1613 -3.73879 -1.63335 0
M  V30 980 H 93.8363 -4.12289 -0.546889 0
M  V30 981 H 92.4133 -3.10298 -2.06809 0
M  V30 982 N 94.5984 0.214957 -1.56127 0
M  V30 983 C 95.8234 0.95924 -1.83884 0
M  V30 984 C 96.2484 1.7689 -0.639644 0
M  V30 985 O 95.6064 1.76566 0.411601 0
M  V30 986 C 95.6544 1.84723 -3.09693 0
M  V30 987 O 94.7584 2.94346 -2.8885 0
M  V30 988 H 94.0994 0.27125 -0.606069 0
M  V30 989 H 96.6294 0.226276 -2.03345 0
M  V30 990 H 96.6394 2.25576 -3.39969 0
M  V30 991 H 95.3144 1.25218 -3.96602 0
M  V30 992 H 93.8914 2.57391 -2.69823 0
M  V30 993 N 96.0765 1.50051 0.48192 0
M  V30 994 C 97.0085 1.64263 1.59844 0
M  V30 995 C 98.0215 0.52451 1.54119 0
M  V30 996 O 99.2105 0.797293 1.59704 0
M  V30 997 C 96.3105 1.60102 2.98698 0
M  V30 998 C 95.4835 2.87767 3.29407 0
M  V30 999 C 94.5425 2.76397 4.47762 0
M  V30 1000 O 93.5685 3.50348 4.48603 0
M  V30 1001 N 94.7705 1.89222 5.48794 0
M  V30 1002 H 97.5355 2.60566 1.48073 0
M  V30 1003 H 95.0965 1.47379 0.670149 0
M  V30 1004 H 97.0885 1.50123 3.75826 0
M  V30 1005 H 95.6585 0.715798 3.04294 0
M  V30 1006 H 94.8785 3.11954 2.40994 0
M  V30 1007 H 96.1665 3.72365 3.4673 0
M  V30 1008 H 95.5645 1.28434 5.50928 0
M  V30 1009 H 94.1215 1.85154 6.24949 0
M  V30 1010 N 97.5546 -0.734337 1.39446 0
M  V30 1011 C 98.4646 -1.87879 1.40495 0
M  V30 1012 C 99.4806 -1.714 0.299672 0
M  V30 1013 O 100.657 -1.93991 0.541249 0
M  V30 1014 C 97.7216 -3.23477 1.24754 0
M  V30 1015 C 96.7826 -3.52344 2.45259 0
M  V30 1016 C 96.0156 -4.81473 2.30259 0
M  V30 1017 O 96.2386 -5.55237 1.30643 0
M  V30 1018 O 95.1726 -5.10254 3.19256 0
M  V30 1019 H 98.9986 -1.89949 2.36966 0
M  V30 1020 H 96.5836 -0.882243 1.20569 0
M  V30 1021 H 98.4656 -4.04509 1.18111 0
M  V30 1022 H 97.1406 -3.22176 0.313781 0
M  V30 1023 H 96.0476 -2.71396 2.57478 0
M  V30 1024 H 97.3806 -3.58426 3.37331 0
M  V30 1025 N 99.0327 -1.24633 -0.964593 0
M  V30 1026 C 100.279 -1.08949 -1.71049 0
M  V30 1027 C 100.612 0.370302 -1.90637 0
M  V30 1028 O 99.8867 1.27349 -1.47011 0
M  V30 1029 C 100.17 -1.83329 -3.0994 0
M  V30 1030 C 100.023 -3.37077 -2.97824 0
M  V30 1031 C 101.342 -1.60846 -4.09654 0
M  V30 1032 H 98.4607 -0.397178 -0.620821 0
M  V30 1033 H 101.103 -1.5334 -1.12191 0
M  V30 1034 H 99.2527 -1.45597 -3.60186 0
M  V30 1035 H 100.925 -3.84425 -2.5498 0
M  V30 1036 H 99.1677 -3.65298 -2.33965 0
M  V30 1037 H 99.8387 -3.84324 -3.96231 0
M  V30 1038 H 102.315 -1.93674 -3.68279 0
M  V30 1039 H 101.191 -2.1534 -5.04896 0
M  V30 1040 H 101.452 -0.547434 -4.38698 0
M  V30 1041 N 100.511 1.16574 -1.06058 0
M  V30 1042 C 101.421 2.2452 -0.680282 0
M  V30 1043 C 102.437 1.71348 0.302604 0
M  V30 1044 O 103.613 2.00822 0.152513 0
M  V30 1045 C 100.678 3.46629 -0.0700315 0
M  V30 1046 C 99.7388 4.14849 -1.10448 0
M  V30 1047 C 98.9718 5.31129 -0.523256 0
M  V30 1048 O 99.1948 5.66514 0.664709 0
M  V30 1049 O 98.1288 5.88526 -1.26179 0
M  V30 1050 H 101.955 2.59355 -1.58015 0
M  V30 1051 H 99.5398 1.24043 -0.832694 0
M  V30 1052 H 101.422 4.20543 0.268667 0
M  V30 1053 H 100.097 3.13573 0.803353 0
M  V30 1054 H 99.0038 3.42916 -1.49532 0
M  V30 1055 H 100.337 4.51954 -1.94931 0
M  V30 1056 N 101.989 0.842826 1.3317 0
M  V30 1057 C 103.235 0.441099 1.97945 0
M  V30 1058 C 103.568 -0.998024 1.66593 0
M  V30 1059 O 102.843 -1.69839 0.947898 0
M  V30 1060 C 103.126 0.666841 3.53872 0
M  V30 1061 C 102.979 2.15352 3.94897 0
M  V30 1062 C 104.298 0.115544 4.39948 0
M  V30 1063 H 101.417 0.161739 0.719034 0
M  V30 1064 H 104.059 1.05907 1.57746 0
M  V30 1065 H 102.209 0.140828 3.88245 0
M  V30 1066 H 103.881 2.7447 3.70761 0
M  V30 1067 H 102.124 2.63653 3.44484 0
M  V30 1068 H 102.795 2.26221 5.03516 0
M  V30 1069 H 105.271 0.565213 4.12243 0
M  V30 1070 H 104.147 0.303152 5.48062 0
M  V30 1071 H 104.408 -0.980935 4.3108 0
M  V30 1072 N 103.467 -1.45747 0.599634 0
M  V30 1073 C 104.43 -2.28917 -0.113835 0
M  V30 1074 C 105.43 -1.3933 -0.802729 0
M  V30 1075 O 106.62 -1.61534 -0.652103 0
M  V30 1076 C 103.752 -3.20152 -1.17114 0
M  V30 1077 H 104.945 -2.93478 0.617289 0
M  V30 1078 H 102.498 -1.52137 0.358327 0
M  V30 1079 H 103.233 -2.60374 -1.93329 0
M  V30 1080 H 103.018 -3.86133 -0.681468 0
M  V30 1081 H 104.508 -3.82708 -1.67105 0
M  V30 1082 N 104.945 -0.338344 -1.53925 0
M  V30 1083 C 106.175 0.260919 -2.04946 0
M  V30 1084 C 106.583 1.45174 -1.2133 0
M  V30 1085 O 105.926 1.82122 -0.240262 0
M  V30 1086 C 105.988 0.744596 -3.51704 0
M  V30 1087 C 105.652 -0.325883 -4.55837 0
M  V30 1088 C 106.649 -1.16687 -5.06636 0
M  V30 1089 C 104.334 -0.478317 -5.00017 0
M  V30 1090 C 106.328 -2.14588 -6.00192 0
M  V30 1091 C 104.015 -1.46073 -5.93385 0
M  V30 1092 C 105.013 -2.29297 -6.4336 0
M  V30 1093 O 104.701 -3.25867 -7.34892 0
M  V30 1094 H 104.433 0.0551207 -0.673749 0
M  V30 1095 H 106.987 -0.486984 -1.99544 0
M  V30 1096 H 105.217 1.54366 -3.54553 0
M  V30 1097 H 106.906 1.26383 -3.85723 0
M  V30 1098 H 107.672 -1.06016 -4.73271 0
M  V30 1099 H 103.551 0.159613 -4.60724 0
M  V30 1100 H 107.095 -2.79585 -6.39123 0
M  V30 1101 H 102.992 -1.56802 -6.26166 0
M  V30 1102 H 103.76 -3.21278 -7.5281 0
M  V30 1103 N 106.423 1.57458 -0.0668435 0
M  V30 1104 C 107.672 1.92477 0.602947 0
M  V30 1105 C 107.985 0.948419 1.71068 0
M  V30 1106 O 109.191 1.19124 2.43971 0
M  V30 1107 C 107.647 3.41903 1.12383 0
M  V30 1108 C 107.255 4.47975 0.04737 0
M  V30 1109 C 108.999 3.85931 1.76797 0
M  V30 1110 C 106.906 5.88529 0.582022 0
M  V30 1111 H 105.836 0.718387 0.22899 0
M  V30 1112 H 108.487 1.82978 -0.138276 0
M  V30 1113 H 106.869 3.46459 1.91787 0
M  V30 1114 H 108.043 4.55029 -0.726978 0
M  V30 1115 H 106.358 4.13384 -0.500243 0
M  V30 1116 H 108.955 4.88322 2.17821 0
M  V30 1117 H 109.298 3.23029 2.62599 0
M  V30 1118 H 109.831 3.83958 1.04024 0
M  V30 1119 H 106.57 6.55065 -0.238721 0
M  V30 1120 H 106.09 5.85004 1.324 0
M  V30 1121 H 107.769 6.38258 1.05999 0
M  V30 1122 N 107.901 -0.206675 1.56239 0
M  V30 1123 C 109.141 -0.93574 1.81723 0
M  V30 1124 C 109.505 -1.80927 0.642609 0
M  V30 1125 O 110.706 -2.57323 0.777081 0
M  V30 1126 C 108.977 -1.74012 3.12177 0
M  V30 1127 S 110.536 -2.52279 3.59028 0
M  V30 1128 H 107.354 -0.314065 0.637875 0
M  V30 1129 H 109.956 -0.200071 1.94474 0
M  V30 1130 H 108.66 -1.0888 3.95693 0
M  V30 1131 H 108.191 -2.51782 3.02274 0
M  V30 1132 H 110.206 -3.76209 3.23545 0
M  V30 1133 N 109.379 -1.50304 -0.473955 0
M  V30 1134 C 110.604 -1.65175 -1.25427 0
M  V30 1135 C 111.029 -0.333673 -1.85117 0
M  V30 1136 O 110.387 0.702114 -1.67153 0
M  V30 1137 C 110.435 -2.74295 -2.34082 0
M  V30 1138 O 109.539 -2.35349 -3.38651 0
M  V30 1139 H 108.88 -0.551944 -0.369126 0
M  V30 1140 H 111.41 -1.96662 -0.564364 0
M  V30 1141 H 111.42 -2.97285 -2.79438 0
M  V30 1142 H 110.095 -3.69959 -1.90008 0
M  V30 1143 H 108.672 -2.22794 -2.99027 0
M  V30 1144 N 110.857 0.726932 -1.39834 0
M  V30 1145 C 111.767 1.87131 -1.41489 0
M  V30 1146 C 112.783 1.71239 -0.308757 0
M  V30 1147 O 113.959 1.93701 -0.551529 0
M  V30 1148 C 111.024 3.22811 -1.26468 0
M  V30 1149 C 110.085 3.51039 -2.47124 0
M  V30 1150 C 109.318 4.80245 -2.3281 0
M  V30 1151 O 109.541 5.54537 -1.33585 0
M  V30 1152 O 108.475 5.08554 -3.21957 0
M  V30 1153 H 112.301 1.8869 -2.3797 0
M  V30 1154 H 109.886 0.875837 -1.21035 0
M  V30 1155 H 111.768 4.03877 -1.20255 0
M  V30 1156 H 110.443 3.22005 -0.330862 0
M  V30 1157 H 109.35 2.70027 -2.58914 0
M  V30 1158 H 110.683 3.56632 -3.39227 0
M  V30 1159 N 112.336 1.25143 0.95797 0
M  V30 1160 C 113.561 1.12521 1.74223 0
M  V30 1161 C 113.986 -0.317402 1.85403 0
M  V30 1162 O 113.344 -1.2299 1.33204 0
M  V30 1163 C 113.392 1.78062 3.1357 0
M  V30 1164 O 112.496 1.058 3.98598 0
M  V30 1165 H 111.837 0.39304 0.535178 0
M  V30 1166 H 114.367 1.65641 1.201 0
M  V30 1167 H 114.377 1.84213 3.64046 0
M  V30 1168 H 113.052 2.83021 3.04749 0
M  V30 1169 H 111.629 1.07506 3.57067 0
M  V30 1170 N 113.814 -1.1601 1.06675 0
M  V30 1171 C 115.039 -1.91068 0.806706 0
M  V30 1172 C 115.464 -1.77112 -0.633485 0
M  V30 1173 O 114.822 -1.09908 -1.44187 0
M  V30 1174 C 114.87 -3.39655 1.21106 0
M  V30 1175 O 113.974 -4.10893 0.352189 0
M  V30 1176 H 113.315 -0.595125 0.294486 0
M  V30 1177 H 115.845 -1.46955 1.42356 0
M  V30 1178 H 115.855 -3.90434 1.18428 0
M  V30 1179 H 114.53 -3.49132 2.26008 0
M  V30 1180 H 113.107 -3.70285 0.440868 0
M  V30 1181 N 115.292 -0.849877 -1.32721 0
M  V30 1182 C 116.517 -0.463856 -2.02146 0
M  V30 1183 C 116.942 0.930449 -1.63476 0
M  V30 1184 O 116.3 1.61033 -0.832952 0
M  V30 1185 C 116.348 -0.604955 -3.55489 0
M  V30 1186 O 115.452 0.36425 -4.10788 0
M  V30 1187 H 114.793 -0.187046 -0.637111 0
M  V30 1188 H 117.323 -1.14775 -1.69375 0
M  V30 1189 H 117.333 -0.490696 -4.05038 0
M  V30 1190 H 116.008 -1.62174 -3.82978 0
M  V30 1191 H 114.585 0.206628 -3.72327 0
M  V30 1192 N 116.77 1.45427 -0.607355 0
M  V30 1193 C 117.72 2.27612 0.133038 0
M  V30 1194 C 118.704 1.37307 0.838785 0
M  V30 1195 O 119.896 1.61299 0.728813 0
M  V30 1196 C 117.025 3.24173 1.12991 0
M  V30 1197 C 116.111 4.21965 0.425011 0
M  V30 1198 N 116.502 5.02982 -0.533217 0
M  V30 1199 C 114.8 4.40899 0.672593 0
M  V30 1200 C 115.501 5.73931 -0.947518 0
M  V30 1201 N 114.477 5.42819 -0.291321 0
M  V30 1202 H 118.279 2.87649 -0.602935 0
M  V30 1203 H 115.793 1.56576 -0.431006 0
M  V30 1204 H 117.79 3.81783 1.67473 0
M  V30 1205 H 116.45 2.65696 1.86644 0
M  V30 1206 H 117.461 5.09843 -0.90995 0
M  V30 1207 H 114.138 3.93547 1.39382 0
M  V30 1208 H 115.528 6.49037 -1.73782 0
M  V30 1209 N 118.248 0.346503 1.53744 0
M  V30 1210 C 119.158 -0.517293 2.28826 0
M  V30 1211 C 120.174 -1.10935 1.3405 0
M  V30 1212 O 121.35 -1.1244 1.6709 0
M  V30 1213 C 118.415 -1.65098 3.04866 0
M  V30 1214 C 117.476 -1.0884 4.15274 0
M  V30 1215 C 116.709 -2.16806 4.87679 0
M  V30 1216 O 116.932 -3.3758 4.59778 0
M  V30 1217 O 115.866 -1.80934 5.74061 0
M  V30 1218 H 119.692 0.0931396 3.03557 0
M  V30 1219 H 117.277 0.111458 1.48984 0
M  V30 1220 H 119.159 -2.31053 3.5241 0
M  V30 1221 H 117.834 -2.24717 2.32989 0
M  V30 1222 H 116.741 -0.3933 3.72027 0
M  V30 1223 H 118.074 -0.537036 4.89261 0
M  V30 1224 N 119.726 -1.57421 0.075193 0
M  V30 1225 C 121.003 -1.85029 -0.634329 0
M  V30 1226 C 121.383 -0.968305 -1.87582 0
M  V30 1227 O 120.731 -0.0354749 -2.28472 0
M  V30 1228 C 120.941 -3.35286 -0.968742 0
M  V30 1229 C 122.289 -4.02875 -1.34077 0
M  V30 1230 O 123.313 -3.40051 -1.06037 0
M  V30 1231 O 122.172 -5.13691 -1.86506 0
M  V30 1232 H 119.266 -0.7645 -0.315387 0
M  V30 1233 H 121.812 -1.69366 0.106382 0
M  V30 1234 H 120.584 -3.91203 -0.0871376 0
M  V30 1235 H 120.207 -3.56223 -1.7661 0
M  V30 1236 N 121.204 0.198386 -1.56346 0
M  V30 1237 C 122.434 0.934215 -1.84271 0
M  V30 1238 C 122.842 1.77496 -0.655125 0
M  V30 1239 O 122.185 1.7961 0.385488 0
M  V30 1240 C 122.247 1.88278 -3.06254 0
M  V30 1241 C 121.911 1.22431 -4.40295 0
M  V30 1242 C 122.908 0.602839 -5.16393 0
M  V30 1243 C 120.593 1.22915 -4.87029 0
M  V30 1244 C 122.587 -0.0050083 -6.374 0
M  V30 1245 C 120.274 0.617465 -6.07973 0
M  V30 1246 C 121.272 0.00146341 -6.83 0
M  V30 1247 O 120.96 -0.600642 -8.01653 0
M  V30 1248 H 120.692 0.278245 -0.616081 0
M  V30 1249 H 123.246 0.211626 -2.04307 0
M  V30 1250 H 121.476 2.64498 -2.82095 0
M  V30 1251 H 123.165 2.48612 -3.20853 0
M  V30 1252 H 123.931 0.591265 -4.81382 0
M  V30 1253 H 119.81 1.69801 -4.28589 0
M  V30 1254 H 123.354 -0.48643 -6.95902 0
M  V30 1255 H 119.251 0.62653 -6.42452 0
M  V30 1256 H 120.019 -0.497225 -8.16988 0
M  V30 1257 N 122.682 1.50554 0.465978 0
M  V30 1258 C 123.931 1.61038 1.21448 0
M  V30 1259 C 124.244 0.31865 1.92987 0
M  V30 1260 O 125.45 0.302469 2.6981 0
M  V30 1261 C 123.906 2.84283 2.20706 0
M  V30 1262 C 123.514 4.20352 1.54946 0
M  V30 1263 C 125.258 3.04115 2.96166 0
M  V30 1264 C 123.165 5.34778 2.5252 0
M  V30 1265 H 122.095 0.599718 0.457005 0
M  V30 1266 H 124.746 1.7699 0.484424 0
M  V30 1267 H 123.128 2.61901 2.97025 0
M  V30 1268 H 124.302 4.53008 0.843811 0
M  V30 1269 H 122.617 4.06167 0.917475 0
M  V30 1270 H 125.214 3.86774 3.69202 0
M  V30 1271 H 125.557 2.16045 3.55852 0
M  V30 1272 H 126.09 3.26702 2.26959 0
M  V30 1273 H 122.829 6.25018 1.97566 0
M  V30 1274 H 122.349 5.06534 3.21222 0
M  V30 1275 H 124.028 5.65561 3.14245 0
M  V30 1276 N 124.16 -0.719506 1.40217 0
M  V30 1277 C 125.576 -1.02707 1.22161 0
M  V30 1278 C 125.776 -2.0128 0.0940557 0
M  V30 1279 O 124.832 -2.46452 -0.549318 0
M  V30 1280 C 126.145 -1.57454 2.56181 0
M  V30 1281 C 127.693 -1.69458 2.63159 0
M  V30 1282 C 128.168 -2.27611 3.97438 0
M  V30 1283 N 129.659 -2.35002 3.99159 0
M  V30 1284 C 130.394 -2.80972 4.99842 0
M  V30 1285 N 129.89 -3.26723 6.10921 0
M  V30 1286 N 131.683 -2.80321 4.87213 0
M  V30 1287 H 123.834 -0.0660492 2.12297 0
M  V30 1288 H 126.097 -0.0919077 0.943534 0
M  V30 1289 H 125.803 -0.924873 3.39321 0
M  V30 1290 H 125.677 -2.56036 2.76993 0
M  V30 1291 H 128.064 -2.33543 1.80393 0
M  V30 1292 H 128.145 -0.694867 2.46181 0
M  V30 1293 H 127.789 -1.6415 4.80643 0
M  V30 1294 H 127.719 -3.2829 4.11744 0
M  V30 1295 H 130.21 -2.02685 3.18947 0
M  V30 1296 H 130.523 -3.60355 6.8364 0
M  V30 1297 H 128.868 -3.24692 6.14492 0
M  V30 1298 H 132.059 -2.43912 3.9953 0
M  V30 1299 H 132.232 -3.15831 5.65822 0
M  V30 1300 N 125.638 -1.25649 -0.95132 0
M  V30 1301 C 126.57 -1.02112 -2.05197 0
M  V30 1302 C 127.583 0.0150571 -1.62793 0
M  V30 1303 O 128.772 -0.223874 -1.77091 0
M  V30 1304 C 125.872 -0.522361 -3.3485 0
M  V30 1305 C 125.045 -1.62546 -4.06076 0
M  V30 1306 C 124.104 -1.12649 -5.14001 0
M  V30 1307 O 123.13 -1.82156 -5.39266 0
M  V30 1308 N 124.332 0.03047 -5.80492 0
M  V30 1309 H 127.097 -1.96885 -2.25957 0
M  V30 1310 H 124.658 -1.16899 -1.1201 0
M  V30 1311 H 126.65 -0.172961 -4.0433 0
M  V30 1312 H 125.22 0.33151 -3.10837 0
M  V30 1313 H 124.44 -2.14628 -3.30649 0
M  V30 1314 H 125.728 -2.36644 -4.50419 0
M  V30 1315 H 125.126 0.611169 -5.62389 0
M  V30 1316 H 123.683 0.320875 -6.5101 0
M  V30 1317 N 127.117 1.15442 -1.07289 0
M  V30 1318 C 128.364 1.86213 -0.795668 0
M  V30 1319 C 128.692 1.82291 0.678238 0
M  V30 1320 O 127.947 1.24057 1.51355 0
M  V30 1321 C 128.246 3.3489 -1.24834 0
M  V30 1322 C 127.912 3.59007 -2.72809 0
M  V30 1323 C 126.574 3.65298 -3.13227 0
M  V30 1324 C 128.926 3.68762 -3.68326 0
M  V30 1325 C 126.254 3.78854 -4.4798 0
M  V30 1326 C 128.606 3.83842 -5.0284 0
M  V30 1327 C 127.27 3.88378 -5.4288 0
M  V30 1328 H 126.54 0.681403 -0.291155 0
M  V30 1329 H 129.187 1.36435 -1.34379 0
M  V30 1330 H 127.492 3.8687 -0.619595 0
M  V30 1331 H 129.189 3.88052 -1.01076 0
M  V30 1332 H 125.779 3.5475 -2.40521 0
M  V30 1333 H 129.963 3.63202 -3.38227 0
M  V30 1334 H 125.219 3.80623 -4.78472 0
M  V30 1335 H 129.393 3.90332 -5.76727 0
M  V30 1336 H 127.02 3.98635 -6.47298 0
M  V30 1337 N 128.595 0.856903 1.32268 0
M  V30 1338 C 129.525 0.31858 2.31316 0
M  V30 1339 C 130.506 -0.583487 1.59779 0
M  V30 1340 O 131.691 -0.503259 1.87566 0
M  V30 1341 C 128.821 -0.491979 3.43798 0
M  V30 1342 C 127.775 0.315849 4.26833 0
M  V30 1343 C 127.101 -0.619586 5.31098 0
M  V30 1344 C 128.401 1.54282 4.98993 0
M  V30 1345 H 130.095 1.14621 2.76591 0
M  V30 1346 H 127.641 0.552613 1.32974 0
M  V30 1347 H 129.594 -0.879012 4.1213 0
M  V30 1348 H 128.318 -1.35299 2.97257 0
M  V30 1349 H 126.977 0.684664 3.6015 0
M  V30 1350 H 126.625 -1.47751 4.8081 0
M  V30 1351 H 126.325 -0.0830621 5.87541 0
M  V30 1352 H 127.849 -1.00375 6.02293 0
M  V30 1353 H 129.263 1.22796 5.59995 0
M  V30 1354 H 127.66 2.01745 5.65172 0
M  V30 1355 H 128.73 2.30285 4.26728 0
M  V30 1356 N 130.073 -1.45103 0.615059 0
M  V30 1357 C 131.021 -2.32331 -0.111791 0
M  V30 1358 C 132.015 -1.46409 -0.852102 0
M  V30 1359 O 133.221 -1.62849 -0.766821 0
M  V30 1360 H 129.596 -0.749993 -0.0549072 0
M  V30 1361 H 131.567 -2.91407 0.642225 0
M  V30 1362 C 130.316 -3.3015 -1.09071 0
M  V30 1363 H 129.639 -3.96265 -0.530485 0
M  V30 1364 H 131.079 -3.93898 -1.56908 0
M  V30 1365 C 129.538 -2.57875 -2.168 0
M  V30 1366 O 130.068 -2.36567 -3.24652 0
M  V30 1367 N 128.274 -2.17884 -1.92289 0
M  V30 1368 H 127.821 -2.35413 -1.04587 0
M  V30 1369 H 127.779 -1.6985 -2.64572 0
M  V30 1370 N 131.551 -0.354651 -1.53558 0
M  V30 1371 C 132.514 0.484566 -2.24019 0
M  V30 1372 C 133.514 1.01861 -1.24422 0
M  V30 1373 O 134.704 0.906097 -1.4878 0
M  V30 1374 C 131.836 1.67615 -2.96847 0
M  V30 1375 H 133.029 -0.131843 -2.9961 0
M  V30 1376 H 130.582 -0.106165 -1.55939 0
M  V30 1377 H 131.317 2.33095 -2.25471 0
M  V30 1378 H 131.102 1.30029 -3.69912 0
M  V30 1379 H 132.592 2.27114 -3.50441 0
M  V30 1380 N 133.029 1.57378 -0.0835403 0
M  V30 1381 C 134.277 1.93547 0.581718 0
M  V30 1382 C 134.598 0.96524 1.69435 0
M  V30 1383 O 133.868 0.0153369 1.95894 0
M  V30 1384 H 132.448 0.714521 0.217874 0
M  V30 1385 H 135.11 1.94366 -0.144158 0
M  V30 1386 H 134.206 2.95665 0.999423 0
M  V30 1387 N 134.507 -0.190092 1.56449 0
M  V30 1388 C 135.454 -1.23557 1.94942 0
M  V30 1389 C 136.424 -1.44972 0.810696 0
M  V30 1390 O 137.609 -1.58023 1.06927 0
M  V30 1391 C 134.749 -2.57416 2.2985 0
M  V30 1392 C 133.862 -2.43537 3.5681 0
M  V30 1393 C 132.997 -3.70134 3.81017 0
M  V30 1394 C 132.036 -3.51109 5.01387 0
M  V30 1395 N 131.173 -4.6973 5.21822 0
M  V30 1396 H 136.013 -0.900304 2.84075 0
M  V30 1397 H 133.55 -0.43318 1.40577 0
M  V30 1398 H 135.508 -3.35409 2.48106 0
M  V30 1399 H 134.138 -2.88975 1.43852 0
M  V30 1400 H 133.19 -1.56816 3.46573 0
M  V30 1401 H 134.502 -2.25415 4.4496 0
M  V30 1402 H 133.656 -4.56566 3.9954 0
M  V30 1403 H 132.395 -3.91215 2.91207 0
M  V30 1404 H 131.4 -2.63063 4.82782 0
M  V30 1405 H 132.625 -3.31468 5.9271 0
M  V30 1406 H 130.571 -4.91065 4.34961 0
M  V30 1407 H 130.488 -4.54452 6.0416 0
M  V30 1408 H 131.756 -5.57499 5.44808 0
M  V30 1409 N 135.985 -1.50799 -0.457987 0
M  V30 1410 C 136.935 -1.67003 -1.55222 0
M  V30 1411 C 137.919 -0.52434 -1.52117 0
M  V30 1412 O 139.111 -0.779345 -1.58919 0
M  V30 1413 C 136.24 -1.77956 -2.93576 0
M  V30 1414 C 135.326 -2.98243 -3.01516 0
M  V30 1415 N 135.717 -4.21732 -2.79241 0
M  V30 1416 C 134.015 -2.97072 -3.32662 0
M  V30 1417 C 134.716 -5.02817 -2.92489 0
M  V30 1418 N 133.692 -4.37038 -3.23262 0
M  V30 1419 H 137.494 -2.60163 -1.36721 0
M  V30 1420 H 135.008 -1.48163 -0.664952 0
M  V30 1421 H 137.005 -1.87671 -3.72271 0
M  V30 1422 H 135.665 -0.859634 -3.13114 0
M  V30 1423 H 136.676 -4.51016 -2.54567 0
M  V30 1424 H 133.353 -2.14631 -3.58106 0
M  V30 1425 H 134.743 -6.11054 -2.79396 0
M  V30 1426 N 137.463 0.71206 -1.40597 0
M  V30 1427 C 138.709 1.47416 -1.39271 0
M  V30 1428 C 139.042 1.942 0.00388791 0
M  V30 1429 O 138.317 1.68403 0.973179 0
M  V30 1430 C 138.6 2.69774 -2.38525 0
M  V30 1431 C 138.453 2.28861 -3.87224 0
M  V30 1432 C 139.772 3.71939 -2.35264 0
M  V30 1433 H 136.891 0.534713 -0.5072 0
M  V30 1434 H 139.533 0.812375 -1.71757 0
M  V30 1435 H 137.683 3.26238 -2.10953 0
M  V30 1436 H 139.355 1.77852 -4.25636 0
M  V30 1437 H 137.598 1.60824 -4.02887 0
M  V30 1438 H 138.269 3.16584 -4.52193 0
M  V30 1439 H 140.745 3.25113 -2.59694 0
M  V30 1440 H 139.621 4.55186 -3.06753 0
M  V30 1441 H 139.882 4.20484 -1.36549 0
M  V30 1442 N 138.941 1.26152 0.944643 0
M  V30 1443 C 139.871 1.09902 2.06019 0
M  V30 1444 C 140.852 0.00519538 1.70099 0
M  V30 1445 O 142.037 0.176583 1.93396 0
M  V30 1446 C 139.167 0.727562 3.39594 0
M  V30 1447 C 138.121 1.77274 3.89561 0
M  V30 1448 C 137.447 1.25569 5.19747 0
M  V30 1449 C 138.747 3.17357 4.14827 0
M  V30 1450 H 140.441 2.03217 2.19871 0
M  V30 1451 H 137.987 0.978452 1.05652 0
M  V30 1452 H 139.94 0.600777 4.17095 0
M  V30 1453 H 138.664 -0.241287 3.25707 0
M  V30 1454 H 137.323 1.88814 3.14237 0
M  V30 1455 H 136.971 0.276783 5.02238 0
M  V30 1456 H 136.671 1.95433 5.54148 0
M  V30 1457 H 138.195 1.1415 5.99835 0
M  V30 1458 H 139.609 3.08914 4.82954 0
M  V30 1459 H 138.006 3.84781 4.60504 0
M  V30 1460 H 139.076 3.63673 3.20734 0
M  V30 1461 N 140.419 -1.14872 1.07899 0
M  V30 1462 C 141.665 -1.86064 0.806725 0
M  V30 1463 C 141.998 -1.82434 -0.665706 0
M  V30 1464 O 141.273 -1.25138 -1.48899 0
M  V30 1465 C 141.556 -3.34929 1.32267 0
M  V30 1466 C 141.409 -3.47161 2.86006 0
M  V30 1467 C 142.728 -4.29863 0.943717 0
M  V30 1468 H 139.847 -0.675591 0.294526 0
M  V30 1469 H 142.489 -1.34925 1.33773 0
M  V30 1470 H 140.639 -3.78611 0.870974 0
M  V30 1471 H 142.311 -3.12302 3.39507 0
M  V30 1472 H 140.554 -2.88539 3.23925 0
M  V30 1473 H 141.225 -4.51777 3.17177 0
M  V30 1474 H 143.701 -3.9417 1.33302 0
M  V30 1475 H 142.577 -5.32494 1.33198 0
M  V30 1476 H 142.838 -4.41846 -0.149796 0
M  V30 1477 N 141.898 -0.863906 -1.31812 0
M  V30 1478 C 142.808 -0.318461 -2.32428 0
M  V30 1479 C 143.824 0.568496 -1.64451 0
M  V30 1480 O 145 0.46666 -1.95919 0
M  V30 1481 C 142.065 0.476355 -3.43412 0
M  V30 1482 C 141.126 -0.43784 -4.27061 0
M  V30 1483 C 140.359 0.319138 -5.32745 0
M  V30 1484 O 140.582 1.54799 -5.48993 0
M  V30 1485 O 139.516 -0.319861 -6.01049 0
M  V30 1486 H 143.342 -1.15229 -2.80991 0
M  V30 1487 H 140.927 -0.627103 -1.35602 0
M  V30 1488 H 142.809 0.927156 -4.11074 0
M  V30 1489 H 141.484 1.28683 -2.97022 0
M  V30 1490 H 140.391 -0.937013 -3.62175 0
M  V30 1491 H 141.724 -1.21375 -4.77 0
M  V30 1492 N 143.376 1.44774 -0.622745 0
M  V30 1493 C 144.606 2.06187 -0.130532 0
M  V30 1494 C 145.014 1.46547 1.19669 0
M  V30 1495 O 144.357 0.579636 1.74316 0
M  V30 1496 C 144.419 3.59437 0.0674983 0
M  V30 1497 C 144.083 4.41496 -1.18026 0
M  V30 1498 C 145.08 4.75512 -2.102 0
M  V30 1499 C 142.765 4.82007 -1.41333 0
M  V30 1500 C 144.759 5.48912 -3.23998 0
M  V30 1501 C 142.446 5.55157 -2.55429 0
M  V30 1502 C 143.444 5.88528 -3.46589 0
M  V30 1503 O 143.132 6.60191 -4.58697 0
M  V30 1504 H 142.864 0.672045 -0.0730162 0
M  V30 1505 H 145.418 1.86768 -0.854802 0
M  V30 1506 H 143.648 3.77314 0.846825 0
M  V30 1507 H 145.337 4.02642 0.513209 0
M  V30 1508 H 146.103 4.4476 -1.93425 0
M  V30 1509 H 141.982 4.55457 -0.712709 0
M  V30 1510 H 145.526 5.74877 -3.95174 0
M  V30 1511 H 141.423 5.85324 -2.72151 0
M  V30 1512 H 142.191 6.78654 -4.57571 0
M  V30 1513 N 144.854 0.36279 1.53368 0
M  V30 1514 C 146.265 -0.117022 1.86333 0
M  V30 1515 C 146.616 -1.48397 1.28347 0
M  V30 1516 O 145.741 -2.07787 0.604428 0
M  V30 1517 C 146.336 -0.21912 3.38091 0
M  V30 1518 C 144.895 -0.643184 3.70864 0
M  V30 1519 C 144.042 0.211318 2.76494 0
M  V30 1520 H 146.993 0.581687 1.47655 0
M  V30 1521 H 147.014 -1.04319 3.6592 0
M  V30 1522 H 146.526 0.775902 3.80265 0
M  V30 1523 H 144.627 -1.64654 3.34245 0
M  V30 1524 H 144.74 -0.41973 4.77258 0
M  V30 1525 H 143.104 -0.319367 2.5269 0
M  V30 1526 H 143.887 1.20383 3.21501 0
M  V30 1527 N 146.332 -1.57332 0.0918853 0
M  V30 1528 C 147.265 -2.09499 -0.904735 0
M  V30 1529 C 148.243 -1.00479 -1.27839 0
M  V30 1530 O 149.427 -1.27954 -1.38419 0
M  V30 1531 C 146.554 -2.56931 -2.2069 0
M  V30 1532 C 145.6 -3.77579 -1.98334 0
M  V30 1533 S 146.433 -5.21317 -1.22428 0
M  V30 1534 C 147.589 -5.72097 -2.53882 0
M  V30 1535 H 147.822 -2.93705 -0.460922 0
M  V30 1536 H 145.355 -1.53923 -0.121332 0
M  V30 1537 H 147.313 -2.84917 -2.95521 0
M  V30 1538 H 145.974 -1.72956 -2.62192 0
M  V30 1539 H 145.167 -4.08824 -2.94752 0
M  V30 1540 H 144.769 -3.5007 -1.31633 0
M  V30 1541 H 147.061 -5.80168 -3.49874 0
M  V30 1542 H 148.004 -6.70654 -2.27219 0
M  V30 1543 H 148.412 -5.00012 -2.62007 0
M  V30 1544 N 147.81 0.181792 -1.56548 0
M  V30 1545 C 149.038 0.915947 -1.85521 0
M  V30 1546 C 149.453 1.76282 -0.676016 0
M  V30 1547 O 148.81 1.79012 0.355077 0
M  V30 1548 C 148.861 1.80126 -3.13427 0
M  V30 1549 O 148.582 0.988562 -4.26801 0
M  V30 1550 C 150.083 2.64597 -3.55673 0
M  V30 1551 H 147.303 0.26661 -0.61576 0
M  V30 1552 H 149.847 0.185039 -2.03661 0
M  V30 1553 H 148.002 2.48563 -2.97145 0
M  V30 1554 H 148.416 1.59308 -4.99721 0
M  V30 1555 H 149.89 3.2235 -4.48101 0
M  V30 1556 H 150.367 3.38958 -2.79292 0
M  V30 1557 H 150.973 2.0151 -3.74532 0
M  V30 1558 N 149.288 1.51039 0.449983 0
M  V30 1559 C 150.218 1.74379 1.55288 0
M  V30 1560 C 151.199 0.593236 1.5942 0
M  V30 1561 O 152.384 0.834625 1.7535 0
M  V30 1562 C 149.514 1.85728 2.93466 0
M  V30 1563 C 148.468 3.01078 3.04197 0
M  V30 1564 C 147.794 2.97595 4.44231 0
M  V30 1565 C 149.094 4.41254 2.7945 0
M  V30 1566 H 150.788 2.66725 1.36008 0
M  V30 1567 H 148.334 1.2835 0.652864 0
M  V30 1568 H 150.287 2.0064 3.70569 0
M  V30 1569 H 149.011 0.900207 3.13949 0
M  V30 1570 H 147.67 2.85851 2.29531 0
M  V30 1571 H 147.318 1.99691 4.61663 0
M  V30 1572 H 147.018 3.75046 4.52343 0
M  V30 1573 H 148.542 3.14583 5.23326 0
M  V30 1574 H 149.956 4.56897 3.46292 0
M  V30 1575 H 148.353 5.20315 2.98985 0
M  V30 1576 H 149.423 4.52164 1.75144 0
M  V30 1577 N 150.766 -0.704594 1.40972 0
M  V30 1578 C 151.991 -1.49858 1.43378 0
M  V30 1579 C 152.416 -1.88061 0.038184 0
M  V30 1580 O 151.774 -1.5402 -0.956425 0
M  V30 1581 C 151.822 -2.74333 2.34038 0
M  V30 1582 O 150.926 -3.7147 1.7912 0
M  V30 1583 H 150.267 -0.45139 0.486974 0
M  V30 1584 H 152.797 -0.866832 1.8533 0
M  V30 1585 H 152.807 -3.22741 2.49604 0
M  V30 1586 H 151.482 -2.45863 3.35446 0
M  V30 1587 H 150.059 -3.30363 1.72958 0
M  V30 1588 N 152.244 -1.26651 -0.937939 0
M  V30 1589 C 153.174 -1.10993 -2.05433 0
M  V30 1590 C 154.155 -0.0142161 -1.70094 0
M  V30 1591 O 155.34 -0.186837 -1.93299 0
M  V30 1592 C 152.47 -0.745561 -3.39203 0
M  V30 1593 C 151.424 -1.79337 -3.88616 0
M  V30 1594 C 150.75 -1.28324 -5.19073 0
M  V30 1595 C 152.05 -3.19553 -4.13138 0
M  V30 1596 H 153.744 -2.0438 -2.1879 0
M  V30 1597 H 151.29 -0.984041 -1.05131 0
M  V30 1598 H 153.243 -0.622888 -4.16771 0
M  V30 1599 H 151.967 0.22401 -3.25831 0
M  V30 1600 H 150.626 -1.90477 -3.13231 0
M  V30 1601 H 150.274 -0.303414 -5.02084 0
M  V30 1602 H 149.974 -1.98369 -5.53103 0
M  V30 1603 H 151.498 -1.1733 -5.99221 0
M  V30 1604 H 152.912 -3.11471 -4.81309 0
M  V30 1605 H 151.309 -3.87218 -4.58457 0
M  V30 1606 H 152.379 -3.65368 -3.18801 0
M  V30 1607 N 153.722 1.14298 -1.08507 0
M  V30 1608 C 154.685 2.17607 -0.719711 0
M  V30 1609 C 155.685 1.58907 0.245997 0
M  V30 1610 O 156.875 1.74181 0.0254081 0
M  V30 1611 C 154.007 3.40842 -0.0627695 0
M  V30 1612 H 155.2 2.51443 -1.63452 0
M  V30 1613 H 152.753 1.28963 -0.88307 0
M  V30 1614 H 153.488 3.12587 0.863716 0
M  V30 1615 H 153.273 3.84713 -0.757504 0
M  V30 1616 H 154.763 4.17221 0.177786 0
M  V30 1617 N 155.201 0.870884 1.31352 0
M  V30 1618 C 156.164 0.332243 2.26779 0
M  V30 1619 C 157.164 -0.517302 1.52252 0
M  V30 1620 O 158.354 -0.326477 1.71113 0
M  V30 1621 C 155.486 -0.528066 3.36785 0
M  V30 1622 H 156.679 1.17469 2.75937 0
M  V30 1623 H 154.232 0.64655 1.423 0
M  V30 1624 H 154.967 -1.39167 2.92922 0
M  V30 1625 H 154.752 0.0802582 3.92018 0
M  V30 1626 H 156.242 -0.897179 4.07849 0
M  V30 1627 N 156.679 -1.44442 0.630414 0
M  V30 1628 C 157.642 -2.29107 -0.0652523 0
M  V30 1629 C 158.642 -1.41002 -0.772995 0
M  V30 1630 O 159.832 -1.62881 -0.617692 0
M  V30 1631 C 156.964 -3.22564 -1.10296 0
M  V30 1632 H 158.157 -2.92103 0.679401 0
M  V30 1633 H 155.71 -1.51343 0.390517 0
M  V30 1634 H 156.445 -2.64416 -1.87762 0
M  V30 1635 H 156.23 -3.87491 -0.59941 0
M  V30 1636 H 157.72 -3.86167 -1.5895 0
M  V30 1637 N 158.157 -0.370918 -1.53173 0
M  V30 1638 C 159.089 0.507823 -2.23503 0
M  V30 1639 C 160.102 1.04182 -1.251 0
M  V30 1640 O 161.291 0.947286 -1.5129 0
M  V30 1641 C 158.391 1.71447 -2.92334 0
M  V30 1642 C 157.564 1.31105 -4.17289 0
M  V30 1643 C 156.623 2.38035 -4.69282 0
M  V30 1644 O 155.649 2.00204 -5.32829 0
M  V30 1645 N 156.851 3.69697 -4.47554 0
M  V30 1646 H 159.616 -0.0946382 -2.99551 0
M  V30 1647 H 157.177 -0.196358 -1.60705 0
M  V30 1648 H 159.169 2.42469 -3.24023 0
M  V30 1649 H 157.739 2.22368 -2.19707 0
M  V30 1650 H 156.959 0.430462 -3.91843 0
M  V30 1651 H 158.247 1.0179 -4.98514 0
M  V30 1652 H 157.645 4.03205 -3.9679 0
M  V30 1653 H 156.202 4.36807 -4.8378 0
M  V30 1654 N 159.635 1.57281 -0.100228 0
M  V30 1655 C 160.545 2.17833 0.870965 0
M  V30 1656 C 161.561 1.14921 1.30649 0
M  V30 1657 O 162.737 1.47313 1.37335 0
M  V30 1658 C 159.802 2.75085 2.1102 0
M  V30 1659 C 158.863 3.9297 1.72838 0
M  V30 1660 C 158.096 4.47482 2.90854 0
M  V30 1661 O 158.319 4.00922 4.05731 0
M  V30 1662 O 157.253 5.38433 2.69023 0
M  V30 1663 H 161.079 3.0124 0.38575 0
M  V30 1664 H 158.664 1.48881 0.124397 0
M  V30 1665 H 160.546 3.11656 2.83634 0
M  V30 1666 H 159.221 1.94721 2.58584 0
M  V30 1667 H 158.128 3.61201 0.973883 0
M  V30 1668 H 159.461 4.74713 1.30033 0
M  V30 1669 N 161.113 -0.173488 1.56642 0
M  V30 1670 C 162.043 -1.2171 1.99271 0
M  V30 1671 C 163.024 -1.46289 0.867959 0
M  V30 1672 O 164.209 -1.5766 1.13388 0
M  V30 1673 C 161.339 -2.55651 2.35074 0
M  V30 1674 C 160.293 -2.45645 3.50489 0
M  V30 1675 C 159.619 -3.84056 3.72028 0
M  V30 1676 C 160.919 -1.96302 4.84007 0
M  V30 1677 H 162.613 -0.86275 2.867 0
M  V30 1678 H 160.159 -0.413571 1.37933 0
M  V30 1679 H 162.112 -3.2886 2.63494 0
M  V30 1680 H 160.836 -2.92869 1.44552 0
M  V30 1681 H 159.495 -1.7489 3.22194 0
M  V30 1682 H 159.143 -4.18664 2.788 0
M  V30 1683 H 158.843 -3.7823 4.49684 0
M  V30 1684 H 160.367 -4.58854 4.02846 0
M  V30 1685 H 161.781 -2.59284 5.11317 0
M  V30 1686 H 160.178 -2.01429 5.65284 0
M  V30 1687 H 161.248 -0.917226 4.76146 0
M  V30 1688 N 162.591 -1.51276 -0.441967 0
M  V30 1689 C 163.837 -1.6492 -1.1905 0
M  V30 1690 C 164.192 -0.358731 -1.89026 0
M  V30 1691 O 163.485 0.645193 -1.8041 0
M  V30 1692 C 163.679 -2.78746 -2.23686 0
M  V30 1693 C 163.508 -4.18737 -1.63979 0
M  V30 1694 C 162.278 -4.84739 -1.42674 0
M  V30 1695 C 164.476 -5.01988 -1.11858 0
M  V30 1696 N 162.458 -6.08858 -0.785159 0
M  V30 1697 C 163.829 -6.17071 -0.601989 0
M  V30 1698 C 165.884 -4.87551 -1.0099 0
M  V30 1699 C 164.587 -7.19299 0.0126012 0
M  V30 1700 C 166.613 -5.89983 -0.409206 0
M  V30 1701 C 165.975 -7.04333 0.0968651 0
M  V30 1702 H 162.074 -0.657416 -0.423471 0
M  V30 1703 H 164.658 -1.8849 -0.48782 0
M  V30 1704 H 162.829 -2.56848 -2.91348 0
M  V30 1705 H 164.561 -2.81595 -2.90666 0
M  V30 1706 H 161.316 -4.42528 -1.68719 0
M  V30 1707 H 161.74 -6.75282 -0.481942 0
M  V30 1708 H 166.382 -3.99401 -1.38703 0
M  V30 1709 H 164.1 -8.071 0.401879 0
M  V30 1710 H 167.686 -5.8088 -0.327079 0
M  V30 1711 H 166.566 -7.82238 0.554373 0
M  V30 1712 N 164.069 0.697108 -1.41344 0
M  V30 1713 C 164.979 1.84088 -1.45427 0
M  V30 1714 C 165.995 1.70545 -0.34501 0
M  V30 1715 O 167.171 1.92488 -0.592492 0
M  V30 1716 C 164.236 3.20056 -1.33286 0
M  V30 1717 C 163.297 3.45718 -2.54514 0
M  V30 1718 C 162.53 4.75199 -2.42944 0
M  V30 1719 O 162.753 5.51579 -1.45318 0
M  V30 1720 O 161.687 5.0161 -3.32672 0
M  V30 1721 H 165.513 1.836 -2.41919 0
M  V30 1722 H 163.098 0.849966 -1.22866 0
M  V30 1723 H 164.98 4.01236 -1.28794 0
M  V30 1724 H 163.655 3.2123 -0.39909 0
M  V30 1725 H 162.562 2.64474 -2.64583 0
M  V30 1726 H 163.895 3.49356 -3.46715 0
M  V30 1727 N 165.547 1.27147 0.931209 0
M  V30 1728 C 166.477 1.12081 2.04842 0
M  V30 1729 C 167.458 0.0232364 1.70084 0
M  V30 1730 O 168.643 0.197085 1.93197 0
M  V30 1731 C 165.773 0.76354 3.38803 0
M  V30 1732 C 164.727 1.81396 3.87659 0
M  V30 1733 C 164.053 1.31075 5.18385 0
M  V30 1734 C 165.353 3.21739 4.11438 0
M  V30 1735 H 167.047 2.05537 2.17703 0
M  V30 1736 H 164.593 0.989603 1.04608 0
M  V30 1737 H 166.546 0.644982 4.16435 0
M  V30 1738 H 165.27 -0.206727 3.25945 0
M  V30 1739 H 163.929 1.92136 3.12217 0
M  V30 1740 H 163.577 0.330037 5.01916 0
M  V30 1741 H 163.277 2.013 5.52044 0
M  V30 1742 H 164.801 1.20506 5.98591 0
M  V30 1743 H 166.215 3.14019 4.79651 0
M  V30 1744 H 164.612 3.89644 4.56397 0
M  V30 1745 H 165.682 3.67054 3.16859 0
M  V30 1746 N 167.025 -1.13721 1.09112 0
M  V30 1747 C 167.988 -2.17222 0.731241 0
M  V30 1748 C 168.988 -1.59035 -0.237566 0
M  V30 1749 O 170.178 -1.74192 -0.0161704 0
M  V30 1750 C 167.31 -3.40804 0.0808443 0
M  V30 1751 H 168.503 -2.50573 1.64783 0
M  V30 1752 H 166.056 -1.28493 0.889897 0
M  V30 1753 H 166.791 -3.1304 -0.847127 0
M  V30 1754 H 166.576 -3.84306 0.777896 0
M  V30 1755 H 168.066 -4.1731 -0.155657 0
M  V30 1756 N 168.503 -0.877838 -1.30888 0
M  V30 1757 C 169.413 -0.343096 -2.32078 0
M  V30 1758 C 170.429 0.551022 -1.65045 0
M  V30 1759 O 171.605 0.445854 -1.96403 0
M  V30 1760 C 168.67 0.439905 -3.43898 0
M  V30 1761 C 167.731 -0.483111 -4.26573 0
M  V30 1762 C 166.964 0.262616 -5.33053 0
M  V30 1763 O 167.187 1.48967 -5.50604 0
M  V30 1764 O 166.121 -0.383593 -6.00676 0
M  V30 1765 H 169.947 -1.18203 -2.79753 0
M  V30 1766 H 167.532 -0.64145 -1.34929 0
M  V30 1767 H 169.414 0.883504 -4.12034 0
M  V30 1768 H 168.089 1.25526 -2.98371 0
M  V30 1769 H 166.996 -0.975374 -3.61161 0
M  V30 1770 H 168.329 -1.26427 -4.75686 0
M  V30 1771 N 169.982 1.44106 -0.638065 0
M  V30 1772 C 170.914 2.28976 0.101205 0
M  V30 1773 C 171.927 1.4167 0.802088 0
M  V30 1774 O 173.116 1.65755 0.662375 0
M  V30 1775 C 170.216 3.18217 1.16581 0
M  V30 1776 C 169.389 4.33978 0.546066 0
M  V30 1777 C 168.448 5.04202 1.50554 0
M  V30 1778 O 167.474 5.59986 1.01999 0
M  V30 1779 N 168.676 5.06296 2.8398 0
M  V30 1780 H 171.441 2.93064 -0.627186 0
M  V30 1781 H 169.002 1.54629 -0.479731 0
M  V30 1782 H 170.994 3.62061 1.80815 0
M  V30 1783 H 169.564 2.55833 1.79634 0
M  V30 1784 H 168.784 3.93239 -0.275046 0
M  V30 1785 H 170.072 5.08675 0.112793 0
M  V30 1786 H 169.47 4.62319 3.26002 0
M  V30 1787 H 168.027 5.53907 3.43556 0
M  V30 1788 N 171.46 0.379036 1.52974 0
M  V30 1789 C 172.407 -0.461048 2.26148 0
M  V30 1790 C 173.377 -1.06637 1.27349 0
M  V30 1791 O 174.562 -1.09633 1.56157 0
M  V30 1792 C 171.702 -1.58782 3.06402 0
M  V30 1793 C 170.815 -1.00636 4.20115 0
M  V30 1794 C 169.95 -2.10334 4.87784 0
M  V30 1795 C 168.989 -1.49724 5.93506 0
M  V30 1796 N 168.126 -2.5331 6.54812 0
M  V30 1797 H 172.966 0.169429 2.97518 0
M  V30 1798 H 170.503 0.0953806 1.4679 0
M  V30 1799 H 172.461 -2.25174 3.51215 0
M  V30 1800 H 171.091 -2.18876 2.37261 0
M  V30 1801 H 170.143 -0.232332 3.7969 0
M  V30 1802 H 171.455 -0.523343 4.96047 0
M  V30 1803 H 170.609 -2.84519 5.35849 0
M  V30 1804 H 169.348 -2.61992 4.11353 0
M  V30 1805 H 168.353 -0.740598 5.44789 0
M  V30 1806 H 169.578 -0.988732 6.71864 0
M  V30 1807 H 167.524 -3.04156 5.81227 0
M  V30 1808 H 167.441 -2.09734 7.26325 0
M  V30 1809 H 168.709 -3.27155 7.07524 0
M  V30 1810 N 172.938 -1.57226 0.108567 0
M  V30 1811 C 174.186 -1.94448 -0.550853 0
M  V30 1812 C 174.507 -0.992074 -1.67878 0
M  V30 1813 O 173.777 -0.0465 -1.95845 0
M  V30 1814 H 172.357 -0.717897 -0.206479 0
M  V30 1815 H 175.019 -1.94112 0.175062 0
M  V30 1816 H 174.115 -2.97218 -0.952259 0
M  V30 1817 N 174.416 0.165178 -1.56732 0
M  V30 1818 C 175.363 1.2044 -1.96883 0
M  V30 1819 C 176.333 1.43664 -0.833657 0
M  V30 1820 O 177.518 1.56302 -1.09427 0
M  V30 1821 C 174.658 2.53727 -2.33916 0
M  V30 1822 C 173.771 2.3783 -3.6064 0
M  V30 1823 C 172.906 3.64026 -3.86857 0
M  V30 1824 C 171.945 3.43088 -5.06909 0
M  V30 1825 N 171.082 4.61369 -5.29229 0
M  V30 1826 H 175.922 0.854996 -2.85471 0
M  V30 1827 H 173.459 0.41076 -1.41249 0
M  V30 1828 H 175.417 3.31419 -2.53411 0
M  V30 1829 H 174.047 2.8665 -1.48431 0
M  V30 1830 H 173.099 1.51282 -3.49024 0
M  V30 1831 H 174.411 2.18308 -4.4849 0
M  V30 1832 H 173.565 4.50152 -4.06753 0
M  V30 1833 H 172.304 3.86533 -2.97394 0
M  V30 1834 H 171.309 2.55349 -4.86906 0
M  V30 1835 H 172.534 3.21997 -5.97909 0
M  V30 1836 H 170.48 4.84084 -4.42718 0
M  V30 1837 H 170.397 4.44783 -6.11313 0
M  V30 1838 H 171.665 5.48761 -5.53608 0
M  V30 1839 N 175.894 1.51508 0.433938 0
M  V30 1840 C 177.14 1.64588 1.18484 0
M  V30 1841 C 177.473 0.362666 1.90784 0
M  V30 1842 O 176.748 -0.637892 1.83742 0
M  V30 1843 C 177.031 2.85149 2.19913 0
M  V30 1844 C 176.884 4.23456 1.51674 0
M  V30 1845 C 178.203 3.01227 3.20858 0
M  V30 1846 H 175.322 0.598994 0.429389 0
M  V30 1847 H 177.964 1.84002 0.473647 0
M  V30 1848 H 176.114 2.68729 2.80566 0
M  V30 1849 H 177.786 4.51552 0.943322 0
M  V30 1850 H 176.029 4.25998 0.819035 0
M  V30 1851 H 176.7 5.03812 2.2556 0
M  V30 1852 H 179.176 3.16382 2.70263 0
M  V30 1853 H 178.052 3.87141 3.89118 0
M  V30 1854 H 178.313 2.13447 3.8716 0
M  V30 1855 N 177.372 -0.689602 1.41712 0
M  V30 1856 C 178.302 -1.81577 1.46806 0
M  V30 1857 C 179.283 -1.66945 0.326105 0
M  V30 1858 O 180.468 -1.86588 0.538377 0
M  V30 1859 C 177.598 -3.19762 1.35535 0
M  V30 1860 C 176.552 -3.49107 2.47605 0
M  V30 1861 C 175.878 -4.86711 2.21397 0
M  V30 1862 C 177.178 -3.47483 3.89939 0
M  V30 1863 H 178.872 -1.7757 2.41058 0
M  V30 1864 H 176.418 -0.852887 1.16025 0
M  V30 1865 H 178.371 -3.98263 1.3771 0
M  V30 1866 H 177.095 -3.24409 0.377708 0
M  V30 1867 H 175.754 -2.72959 2.44722 0
M  V30 1868 H 175.402 -4.8799 1.21961 0
M  V30 1869 H 175.102 -5.0731 2.96497 0
M  V30 1870 H 176.626 -5.67515 2.25297 0
M  V30 1871 H 178.04 -4.1598 3.94505 0
M  V30 1872 H 176.437 -3.79615 4.64771 0
M  V30 1873 H 177.507 -2.46341 4.17665 0
M  V30 1874 N 178.85 -1.27639 -0.924453 0
M  V30 1875 C 179.8 -1.07295 -2.01176 0
M  V30 1876 C 180.784 5.77352e-05 -1.609 0
M  V30 1877 O 181.976 -0.218855 -1.75642 0
M  V30 1878 C 179.105 -0.725592 -3.35544 0
M  V30 1879 C 178.191 -1.83691 -3.82254 0
M  V30 1880 N 178.582 -3.07697 -4.01443 0
M  V30 1881 C 176.88 -1.72433 -4.11319 0
M  V30 1882 C 177.581 -3.80037 -4.40394 0
M  V30 1883 N 176.557 -3.0782 -4.48049 0
M  V30 1884 H 180.359 -2.01399 -2.14046 0
M  V30 1885 H 177.873 -1.18401 -1.11153 0
M  V30 1886 H 179.87 -0.560959 -4.13109 0
M  V30 1887 H 178.53 0.207782 -3.24034 0
M  V30 1888 H 179.541 -3.43424 -3.8766 0
M  V30 1889 H 176.218 -0.862005 -4.08504 0
M  V30 1890 H 177.608 -4.86632 -4.63291 0
M  V30 1891 N 180.328 1.1314 -1.09713 0
M  V30 1892 C 181.238 2.22242 -0.751367 0
M  V30 1893 C 182.254 1.72224 0.247938 0
M  V30 1894 O 183.43 2.01205 0.0885463 0
M  V30 1895 C 180.495 3.46231 -0.180274 0
M  V30 1896 C 179.556 4.11125 -1.2359 0
M  V30 1897 C 178.789 5.29195 -0.691966 0
M  V30 1898 O 179.012 5.68342 0.48414 0
M  V30 1899 O 177.946 5.84214 -1.44838 0
M  V30 1900 H 181.772 2.54197 -1.66186 0
M  V30 1901 H 179.357 1.21331 -0.871735 0
M  V30 1902 H 181.239 4.21185 0.134739 0
M  V30 1903 H 179.914 3.1597 0.703185 0
M  V30 1904 H 178.821 3.37985 -1.60366 0
M  V30 1905 H 180.154 4.45524 -2.09211 0
M  V30 1906 N 181.806 0.884767 1.30421 0
M  V30 1907 C 182.716 0.355398 2.31892 0
M  V30 1908 C 183.732 -0.542261 1.65335 0
M  V30 1909 O 184.908 -0.435432 1.96637 0
M  V30 1910 C 181.973 -0.421661 3.44126 0
M  V30 1911 C 181.034 0.505727 4.26311 0
M  V30 1912 C 180.267 -0.234343 5.33185 0
M  V30 1913 O 180.49 -1.46045 5.51386 0
M  V30 1914 O 179.424 0.415443 6.00465 0
M  V30 1915 H 183.25 1.19685 2.79122 0
M  V30 1916 H 180.835 0.648596 1.34587 0
M  V30 1917 H 182.717 -0.861641 4.12497 0
M  V30 1918 H 181.392 -1.23942 2.99032 0
M  V30 1919 H 180.299 0.994513 3.60639 0
M  V30 1920 H 181.632 1.28948 4.75009 0
M  V30 1921 N 183.284 -1.43765 0.645699 0
M  V30 1922 C 184.234 -2.27884 -0.0726442 0
M  V30 1923 C 185.218 -1.39483 -0.802086 0
M  V30 1924 O 186.41 -1.63174 -0.685791 0
M  V30 1925 C 183.539 -3.27055 -1.04356 0
M  V30 1926 C 182.625 -4.22944 -0.312985 0
M  V30 1927 N 183.016 -5.01391 0.666386 0
M  V30 1928 C 181.314 -4.42528 -0.55546 0
M  V30 1929 C 182.015 -5.71217 1.09935 0
M  V30 1930 N 180.991 -5.41856 0.435137 0
M  V30 1931 H 184.793 -2.85949 0.678988 0
M  V30 1932 H 182.307 -1.55378 0.472368 0
M  V30 1933 H 184.304 -3.86089 -1.57292 0
M  V30 1934 H 182.964 -2.70551 -1.79534 0
M  V30 1935 H 183.975 -5.07252 1.04481 0
M  V30 1936 H 180.652 -3.97104 -1.28899 0
M  V30 1937 H 182.042 -6.44202 1.90929 0
M  V30 1938 N 184.763 -0.387143 -1.52771 0
M  V30 1939 C 186.009 0.196025 -2.0185 0
M  V30 1940 C 186.342 1.46641 -1.27319 0
M  V30 1941 O 185.617 1.90889 -0.373032 0
M  V30 1942 C 185.9 0.466136 -3.5707 0
M  V30 1943 C 185.753 -0.819385 -4.42274 0
M  V30 1944 C 187.072 1.25768 -4.21747 0
M  V30 1945 H 184.191 0.0697708 -0.73369 0
M  V30 1946 H 186.833 -0.516286 -1.82851 0
M  V30 1947 H 184.983 1.07293 -3.7339 0
M  V30 1948 H 186.655 -1.4563 -4.37709 0
M  V30 1949 H 184.898 -1.43517 -4.09372 0
M  V30 1950 H 185.569 -0.585065 -5.48891 0
M  V30 1951 H 188.045 0.744167 -4.09391 0
M  V30 1952 H 186.921 1.41541 -5.30337 0
M  V30 1953 H 187.182 2.27228 -3.79236 0
M  V30 1954 N 186.241 1.57166 -0.116904 0
M  V30 1955 C 187.151 2.18745 0.847812 0
M  V30 1956 C 188.167 1.163 1.29423 0
M  V30 1957 O 189.343 1.48761 1.35765 0
M  V30 1958 C 186.408 2.77307 2.0809 0
M  V30 1959 C 185.469 3.94781 1.68661 0
M  V30 1960 C 184.702 4.50541 2.86091 0
M  V30 1961 O 184.925 4.05202 4.01456 0
M  V30 1962 O 183.859 5.41256 2.63298 0
M  V30 1963 H 187.685 3.01632 0.353778 0
M  V30 1964 H 185.27 1.49005 0.108599 0
M  V30 1965 H 187.152 3.14647 2.80313 0
M  V30 1966 H 185.827 1.97452 2.56504 0
M  V30 1967 H 184.734 3.62214 0.935518 0
M  V30 1968 H 186.067 4.76065 1.24991 0
M  V30 1969 N 187.719 -0.156864 1.56817 0
M  V30 1970 C 188.649 -1.19589 2.00551 0
M  V30 1971 C 189.63 -1.4536 0.883426 0
M  V30 1972 O 190.815 -1.56449 1.15054 0
M  V30 1973 C 187.945 -2.53143 2.37773 0
M  V30 1974 C 186.899 -2.41913 3.53075 0
M  V30 1975 C 186.225 -3.80088 3.76081 0
M  V30 1976 C 187.525 -1.91157 4.86062 0
M  V30 1977 H 189.219 -0.832293 2.87599 0
M  V30 1978 H 186.765 -0.398918 1.38364 0
M  V30 1979 H 188.718 -3.26047 2.66967 0
M  V30 1980 H 187.442 -2.91319 1.4765 0
M  V30 1981 H 186.101 -1.71462 3.24031 0
M  V30 1982 H 185.749 -4.15683 2.83225 0
M  V30 1983 H 185.449 -3.73439 4.53671 0
M  V30 1984 H 186.973 -4.54556 4.0769 0
M  V30 1985 H 188.387 -2.53846 5.14038 0
M  V30 1986 H 186.784 -1.95422 5.67389 0
M  V30 1987 H 187.854 -0.866673 4.77092 0
M  V30 1988 N 189.197 -1.51736 -0.425897 0
M  V30 1989 C 190.127 -1.76827 -1.52494 0
M  V30 1990 C 191.108 -0.618524 -1.58456 0
M  V30 1991 O 192.293 -0.862416 -1.74 0
M  V30 1992 C 189.423 -1.90374 -2.90474 0
M  V30 1993 C 188.377 -3.0588 -2.99369 0
M  V30 1994 C 187.703 -3.04625 -4.3944 0
M  V30 1995 C 189.003 -4.45644 -2.72394 0
M  V30 1996 H 190.697 -2.68855 -1.31748 0
M  V30 1997 H 188.243 -1.29372 -0.632362 0
M  V30 1998 H 190.196 -2.0651 -3.6733 0
M  V30 1999 H 188.92 -0.95004 -3.12477 0
M  V30 2000 H 187.579 -2.89467 -2.24954 0
M  V30 2001 H 187.227 -2.0701 -4.58428 0
M  V30 2002 H 186.927 -3.82195 -4.46319 0
M  V30 2003 H 188.451 -3.22869 -5.18255 0
M  V30 2004 H 189.865 -4.62348 -3.38979 0
M  V30 2005 H 188.262 -5.25006 -2.9067 0
M  V30 2006 H 189.332 -4.54893 -1.67929 0
M  V30 2007 N 190.675 0.682077 -1.42076 0
M  V30 2008 C 191.608 1.80666 -1.3941 0
M  V30 2009 C 192.586 1.60518 -0.25939 0
M  V30 2010 O 193.77 1.83088 -0.448456 0
M  V30 2011 C 190.897 3.17556 -1.17796 0
M  V30 2012 C 189.943 3.56468 -2.34164 0
M  V30 2013 S 190.776 3.59729 -3.96681 0
M  V30 2014 C 191.932 4.99323 -3.77395 0
M  V30 2015 H 192.165 1.82652 -2.34575 0
M  V30 2016 H 189.698 0.852062 -1.2876 0
M  V30 2017 H 191.656 3.96575 -1.06012 0
M  V30 2018 H 190.317 3.13164 -0.242279 0
M  V30 2019 H 189.51 4.5595 -2.1477 0
M  V30 2020 H 189.112 2.84792 -2.42425 0
M  V30 2021 H 191.404 5.87202 -3.37935 0
M  V30 2022 H 192.347 5.23763 -4.76527 0
M  V30 2023 H 192.755 4.71498 -3.10403 0
M  V30 2024 N 192.153 1.28127 0.917671 0
M  V30 2025 C 193.063 1.13556 2.05286 0
M  V30 2026 C 194.079 0.0630914 1.73886 0
M  V30 2027 O 195.255 0.271598 1.9956 0
M  V30 2028 C 192.32 0.794676 3.3747 0
M  V30 2029 C 191.381 1.94909 3.82504 0
M  V30 2030 C 190.614 1.62437 5.0838 0
M  V30 2031 O 190.837 0.536905 5.67867 0
M  V30 2032 O 189.771 2.46677 5.4903 0
M  V30 2033 H 193.597 2.08844 2.20495 0
M  V30 2034 H 191.182 1.07409 1.03845 0
M  V30 2035 H 193.064 0.618344 4.16839 0
M  V30 2036 H 191.739 -0.128581 3.23445 0
M  V30 2037 H 190.646 2.18055 3.03978 0
M  V30 2038 H 191.979 2.85291 4.01086 0
M  V30 2039 N 193.631 -1.12557 1.10312 0
M  V30 2040 C 194.541 -2.21841 0.763142 0
M  V30 2041 C 195.557 -1.72354 -0.238801 0
M  V30 2042 O 196.733 -2.01249 -0.0778746 0
M  V30 2043 C 193.798 -3.46131 0.198632 0
M  V30 2044 C 192.859 -4.10464 1.25769 0
M  V30 2045 C 192.092 -5.28821 0.72002 0
M  V30 2046 O 192.315 -5.6859 -0.453993 0
M  V30 2047 O 191.249 -5.83437 1.47935 0
M  V30 2048 H 195.075 -2.53312 1.67532 0
M  V30 2049 H 192.66 -1.20867 0.878157 0
M  V30 2050 H 194.542 -4.2125 -0.112401 0
M  V30 2051 H 193.217 -3.16338 -0.686419 0
M  V30 2052 H 192.124 -3.3713 1.62156 0
M  V30 2053 H 193.457 -4.44408 2.11571 0
M  V30 2054 N 195.109 -0.891671 -1.2995 0
M  V30 2055 C 196.356 -0.513501 -1.95881 0
M  V30 2056 C 196.684 0.938655 -1.70351 0
M  V30 2057 O 195.939 1.67936 -1.00478 0
M  V30 2058 C 196.238 -0.742868 -3.49594 0
M  V30 2059 C 195.904 -2.17114 -3.95186 0
M  V30 2060 C 194.566 -2.56169 -4.07346 0
M  V30 2061 C 196.918 -3.10162 -4.18866 0
M  V30 2062 C 194.246 -3.87469 -4.4055 0
M  V30 2063 C 196.598 -4.41001 -4.53542 0
M  V30 2064 C 195.262 -4.79941 -4.63911 0
M  V30 2065 H 194.532 -0.187903 -0.71678 0
M  V30 2066 H 197.179 -1.1288 -1.54694 0
M  V30 2067 H 195.484 -0.044586 -3.91775 0
M  V30 2068 H 197.181 -0.429767 -3.9869 0
M  V30 2069 H 193.771 -1.85801 -3.86233 0
M  V30 2070 H 197.955 -2.81206 -4.08946 0
M  V30 2071 H 193.211 -4.17371 -4.46779 0
M  V30 2072 H 197.385 -5.13133 -4.70815 0
M  V30 2073 H 195.012 -5.81719 -4.89395 0
M  V30 2074 N 196.587 1.43421 -0.653314 0
M  V30 2075 C 197.55 2.29182 0.0287951 0
M  V30 2076 C 198.55 1.42213 0.750465 0
M  V30 2077 O 199.74 1.63843 0.591701 0
M  V30 2078 C 196.872 3.24278 1.05151 0
M  V30 2079 H 198.065 2.90985 -0.725786 0
M  V30 2080 H 195.618 1.50702 -0.414545 0
M  V30 2081 H 196.353 2.6737 1.83532 0
M  V30 2082 H 196.138 3.88396 0.537687 0
M  V30 2083 H 197.628 3.88647 1.52786 0
M  V30 2084 N 198.065 0.39524 1.52563 0
M  V30 2085 C 199.312 -0.185044 2.01653 0
M  V30 2086 C 199.64 -1.46317 1.28146 0
M  V30 2087 O 198.895 -1.9213 0.372074 0
M  V30 2088 C 199.194 -0.493444 3.53977 0
M  V30 2089 C 198.86 0.69384 4.4553 0
M  V30 2090 C 197.522 1.01954 4.70275 0
M  V30 2091 C 199.874 1.48785 4.99512 0
M  V30 2092 C 197.202 2.14069 5.46252 0
M  V30 2093 C 199.554 2.59965 5.76716 0
M  V30 2094 C 198.218 2.93037 5.99738 0
M  V30 2095 H 197.488 -0.0677123 0.7379 0
M  V30 2096 H 200.135 0.533807 1.8391 0
M  V30 2097 H 198.44 -1.29369 3.69825 0
M  V30 2098 H 200.137 -0.955163 3.89458 0
M  V30 2099 H 196.727 0.429987 4.26438 0
M  V30 2100 H 200.911 1.24946 4.80315 0
M  V30 2101 H 196.167 2.40056 5.62302 0
M  V30 2102 H 200.341 3.21887 6.17545 0
M  V30 2103 H 197.968 3.8003 6.58393 0
M  V30 2104 N 199.544 -1.57102 0.125237 0
M  V30 2105 C 200.474 -2.18659 -0.819174 0
M  V30 2106 C 201.455 -1.12843 -1.27281 0
M  V30 2107 O 202.64 -1.41104 -1.33429 0
M  V30 2108 C 199.77 -2.79096 -2.06695 0
M  V30 2109 C 198.724 -3.90548 -1.75088 0
M  V30 2110 C 198.05 -4.37821 -3.06948 0
M  V30 2111 C 199.35 -5.12356 -1.01435 0
M  V30 2112 H 201.044 -2.9783 -0.306202 0
M  V30 2113 H 198.59 -1.4326 -0.145839 0
M  V30 2114 H 200.543 -3.2082 -2.73226 0
M  V30 2115 H 199.267 -1.97223 -2.60328 0
M  V30 2116 H 197.926 -3.49409 -1.10944 0
M  V30 2117 H 197.574 -3.52799 -3.58527 0
M  V30 2118 H 197.274 -5.12982 -2.86571 0
M  V30 2119 H 198.798 -4.822 -3.74587 0
M  V30 2120 H 200.212 -5.5106 -1.58132 0
M  V30 2121 H 198.609 -5.9314 -0.911319 0
M  V30 2122 H 199.679 -4.849 -0.00218681 0
M  V30 2123 N 201.022 0.148545 -1.56898 0
M  V30 2124 C 201.969 1.18345 -1.98149 0
M  V30 2125 C 202.939 1.42772 -0.848848 0
M  V30 2126 O 204.124 1.55132 -1.11079 0
M  V30 2127 C 201.264 2.51231 -2.36594 0
M  V30 2128 C 200.377 2.33991 -3.63142 0
M  V30 2129 C 199.512 3.59902 -3.90697 0
M  V30 2130 C 198.551 3.37692 -5.1052 0
M  V30 2131 N 197.688 4.5573 -5.34092 0
M  V30 2132 H 202.528 0.82467 -2.86362 0
M  V30 2133 H 200.065 0.395756 -1.41676 0
M  V30 2134 H 202.023 3.28713 -2.56912 0
M  V30 2135 H 200.653 2.85059 -1.51463 0
M  V30 2136 H 199.705 1.47572 -3.50609 0
M  V30 2137 H 201.017 2.13539 -4.5078 0
M  V30 2138 H 200.171 4.45813 -4.11505 0
M  V30 2139 H 198.91 3.83357 -3.01477 0
M  V30 2140 H 197.915 2.5017 -4.89587 0
M  V30 2141 H 199.14 3.15637 -6.0129 0
M  V30 2142 H 197.086 4.79361 -4.47827 0
M  V30 2143 H 197.003 4.38274 -6.15996 0
M  V30 2144 H 198.271 5.42858 -5.59397 0
M  V30 2145 N 202.5 1.5196 0.417844 0
M  V30 2146 C 203.447 1.74678 1.50852 0
M  V30 2147 C 204.417 0.588947 1.55308 0
M  V30 2148 O 205.602 0.825544 1.72016 0
M  V30 2149 C 202.742 1.89544 2.88387 0
M  V30 2150 C 201.855 3.17166 2.93309 0
M  V30 2151 C 200.99 3.22513 4.22088 0
M  V30 2152 C 200.029 4.44372 4.20951 0
M  V30 2153 N 199.166 4.47161 5.41287 0
M  V30 2154 H 204.006 2.67768 1.30783 0
M  V30 2155 H 201.543 1.32689 0.63498 0
M  V30 2156 H 203.501 1.96146 3.68216 0
M  V30 2157 H 202.131 0.998424 3.06971 0
M  V30 2158 H 201.183 3.19778 2.06024 0
M  V30 2159 H 202.495 4.07021 2.88332 0
M  V30 2160 H 201.649 3.28139 5.10303 0
M  V30 2161 H 200.388 2.30581 4.29748 0
M  V30 2162 H 199.393 4.38902 3.31127 0
M  V30 2163 H 200.618 5.3759 4.14938 0
M  V30 2164 H 198.564 3.58108 5.49632 0
M  V30 2165 H 198.481 5.3085 5.3827 0
M  V30 2166 H 199.749 4.57005 6.3148 0
M  V30 2167 N 203.978 -0.674533 1.42435 0
M  V30 2168 C 204.888 -1.81751 1.48337 0
M  V30 2169 C 205.904 -1.69975 0.372099 0
M  V30 2170 O 207.08 -1.91521 0.62304 0
M  V30 2171 C 204.145 -3.17895 1.38361 0
M  V30 2172 C 203.206 -3.41625 2.59982 0
M  V30 2173 C 202.439 -4.71274 2.50473 0
M  V30 2174 O 202.662 -5.49197 1.54075 0
M  V30 2175 O 201.596 -4.96254 3.4061 0
M  V30 2176 H 205.422 -1.79728 2.44809 0
M  V30 2177 H 203.007 -0.830312 1.24202 0
M  V30 2178 H 204.889 -3.99136 1.35161 0
M  V30 2179 H 203.564 -3.20555 0.450144 0
M  V30 2180 H 202.471 -2.60231 2.68757 0
M  V30 2181 H 203.804 -3.43796 3.52229 0
M  V30 2182 N 205.456 -1.28612 -0.910864 0
M  V30 2183 C 206.702 -1.16106 -1.66274 0
M  V30 2184 C 207.035 0.289113 -1.92036 0
M  V30 2185 O 206.31 1.21 -1.52281 0
M  V30 2186 C 206.593 -1.96309 -3.01885 0
M  V30 2187 C 206.446 -3.49405 -2.8326 0
M  V30 2188 C 207.765 -1.78076 -4.02463 0
M  V30 2189 H 204.884 -0.423152 -0.603417 0
M  V30 2190 H 207.526 -1.57961 -1.05586 0
M  V30 2191 H 205.676 -1.60742 -3.53687 0
M  V30 2192 H 207.348 -3.94894 -2.38446 0
M  V30 2193 H 205.591 -3.74893 -2.18261 0
M  V30 2194 H 206.262 -4.00784 -3.79574 0
M  V30 2195 H 208.738 -2.0912 -3.59733 0
M  V30 2196 H 207.614 -2.36561 -4.95308 0
M  V30 2197 H 207.875 -0.733008 -4.35981 0
M  V30 2198 N 206.934 1.1197 -1.10907 0
M  V30 2199 C 208.18 1.8386 -0.855773 0
M  V30 2200 C 208.513 1.84134 0.617103 0
M  V30 2201 O 207.788 1.29041 1.45529 0
M  V30 2202 C 208.071 3.31305 -1.411 0
M  V30 2203 C 207.924 3.39456 -2.9511 0
M  V30 2204 C 209.243 4.2721 -1.05736 0
M  V30 2205 H 206.362 0.667545 -0.312334 0
M  V30 2206 H 209.004 1.31331 -1.37303 0
M  V30 2207 H 207.154 3.76169 -0.97105 0
M  V30 2208 H 208.826 3.03191 -3.47668 0
M  V30 2209 H 207.069 2.79849 -3.31462 0
M  V30 2210 H 207.74 4.43209 -3.29044 0
M  V30 2211 H 210.216 3.90497 -1.43706 0
M  V30 2212 H 209.092 5.28775 -1.47269 0
M  V30 2213 H 209.353 4.42088 0.0325958 0
M  V30 2214 N 208.412 0.89855 1.29475 0
M  V30 2215 C 209.66 0.522847 1.9522 0
M  V30 2216 C 209.981 -0.93371 1.71192 0
M  V30 2217 O 209.251 -1.65823 1.04305 0
M  V30 2218 H 207.831 0.190366 0.722336 0
M  V30 2219 H 210.493 1.14459 1.5775 0
M  V30 2220 H 209.589 0.704476 3.04045 0
M  V30 2221 N 209.89 -1.43072 0.660911 0
M  V30 2222 C 210.837 -2.30785 -0.0259884 0
M  V30 2223 C 211.807 -1.45184 -0.806888 0
M  V30 2224 O 212.992 -1.74041 -0.781943 0
M  V30 2225 C 210.132 -3.30861 -0.981067 0
M  V30 2226 C 209.245 -4.31558 -0.195458 0
M  V30 2227 C 208.38 -5.18712 -1.14503 0
M  V30 2228 C 207.419 -6.11097 -0.350299 0
M  V30 2229 N 206.556 -6.90849 -1.25186 0
M  V30 2230 H 211.396 -2.88975 0.727846 0
M  V30 2231 H 208.933 -1.42353 0.370682 0
M  V30 2232 H 210.891 -3.87399 -1.54849 0
M  V30 2233 H 209.521 -2.74304 -1.70169 0
M  V30 2234 H 208.573 -3.77252 0.488374 0
M  V30 2235 H 209.885 -4.9701 0.422176 0
M  V30 2236 H 209.039 -5.79914 -1.78284 0
M  V30 2237 H 207.778 -4.53404 -1.79656 0
M  V30 2238 H 206.783 -5.48976 0.300808 0
M  V30 2239 H 208.008 -6.7845 0.296941 0
M  V30 2240 H 205.954 -6.28182 -1.89005 0
M  V30 2241 H 205.871 -7.52854 -0.688971 0
M  V30 2242 H 207.139 -7.5655 -1.87757 0
M  V30 2243 N 211.368 -0.403325 -1.52352 0
M  V30 2244 C 212.645 0.232611 -1.94212 0
M  V30 2245 C 213.025 1.63133 -1.33981 0
M  V30 2246 O 212.373 2.22659 -0.513344 0
M  V30 2247 C 212.583 0.244811 -3.4814 0
M  V30 2248 C 213.931 0.46698 -4.22024 0
M  V30 2249 O 214.955 0.324419 -3.5472 0
M  V30 2250 O 213.814 0.74747 -5.41364 0
M  V30 2251 H 210.908 0.148223 -0.813609 0
M  V30 2252 H 213.454 -0.458848 -1.63379 0
M  V30 2253 H 212.226 -0.734378 -3.84347 0
M  V30 2254 H 211.849 0.980611 -3.85318 0
M  V30 2255 N 212.846 1.57033 -0.133567 0
M  V30 2256 C 213.776 2.1909 0.807567 0
M  V30 2257 C 214.757 1.13517 1.26681 0
M  V30 2258 O 215.942 1.41809 1.32679 0
M  V30 2259 C 213.072 2.80188 2.05212 0
M  V30 2260 C 212.026 3.91471 1.73015 0
M  V30 2261 C 211.352 4.39443 3.04622 0
M  V30 2262 C 212.652 5.12886 0.987168 0
M  V30 2263 H 214.346 2.97988 0.290403 0
M  V30 2264 H 211.892 1.43335 0.138239 0
M  V30 2265 H 213.845 3.22264 2.71521 0
M  V30 2266 H 212.569 1.98601 2.59278 0
M  V30 2267 H 211.228 3.49993 1.0909 0
M  V30 2268 H 210.876 3.54695 3.56651 0
M  V30 2269 H 210.576 5.14495 2.83847 0
M  V30 2270 H 212.1 4.8418 3.72024 0
M  V30 2271 H 213.514 5.51891 1.55208 0
M  V30 2272 H 211.911 5.93615 0.87985 0
M  V30 2273 H 212.981 4.84894 -0.0235286 0
M  V30 2274 N 214.325 -0.140222 1.56975 0
M  V30 2275 C 215.255 -1.17456 2.01808 0
M  V30 2276 C 216.236 -1.44415 0.898794 0
M  V30 2277 O 217.421 -1.5522 1.16707 0
M  V30 2278 C 214.551 -2.50607 2.40444 0
M  V30 2279 C 213.505 -2.38155 3.55621 0
M  V30 2280 C 212.831 -3.76078 3.80091 0
M  V30 2281 C 214.131 -1.85991 4.88062 0
M  V30 2282 H 215.825 -0.801743 2.88466 0
M  V30 2283 H 213.371 -0.38422 1.38779 0
M  V30 2284 H 215.324 -3.23197 2.7041 0
M  V30 2285 H 214.048 -2.89737 1.50732 0
M  V30 2286 H 212.707 -1.68016 3.25832 0
M  V30 2287 H 212.355 -4.12656 2.87618 0
M  V30 2288 H 212.055 -3.68606 4.57606 0
M  V30 2289 H 213.579 -4.50206 4.12488 0
M  V30 2290 H 214.993 -2.4838 5.16701 0
M  V30 2291 H 213.39 -1.89393 5.6943 0
M  V30 2292 H 214.46 -0.816023 4.77984 0
M  V30 2293 N 215.803 -1.52179 -0.40978 0
M  V30 2294 C 216.75 -1.75475 -1.49924 0
M  V30 2295 C 217.72 -0.597175 -1.54994 0
M  V30 2296 O 218.905 -0.834655 -1.71575 0
M  V30 2297 C 216.045 -1.9107 -2.87378 0
M  V30 2298 C 215.158 -3.18717 -2.91622 0
M  V30 2299 C 214.293 -3.24747 -4.20372 0
M  V30 2300 C 213.332 -4.46598 -4.18588 0
M  V30 2301 N 212.469 -4.50025 -5.38908 0
M  V30 2302 H 217.309 -2.68458 -1.29361 0
M  V30 2303 H 214.846 -1.33024 -0.627934 0
M  V30 2304 H 216.804 -1.98096 -3.6717 0
M  V30 2305 H 215.434 -1.01469 -3.06437 0
M  V30 2306 H 214.486 -3.20866 -2.04326 0
M  V30 2307 H 215.798 -4.08544 -2.86169 0
M  V30 2308 H 214.952 -3.30841 -5.08556 0
M  V30 2309 H 213.691 -2.32857 -4.28519 0
M  V30 2310 H 212.696 -4.40652 -3.28794 0
M  V30 2311 H 213.921 -5.39783 -4.12081 0
M  V30 2312 H 211.867 -3.61017 -5.47725 0
M  V30 2313 H 211.784 -5.33697 -5.35447 0
M  V30 2314 H 213.052 -4.60347 -6.29048 0
M  V30 2315 N 217.281 0.66697 -1.42791 0
M  V30 2316 C 218.529 1.42417 -1.43394 0
M  V30 2317 C 218.85 1.94925 -0.0542373 0
M  V30 2318 O 218.12 1.73564 0.908415 0
M  V30 2319 H 216.7 0.528515 -0.527902 0
M  V30 2320 H 219.362 0.787562 -1.78279 0
M  V30 2321 H 218.458 2.27333 -2.13837 0
M  V30 2322 N 218.759 1.29093 0.90403 0
M  V30 2323 C 219.984 1.19809 1.69294 0
M  V30 2324 C 220.409 -0.238481 1.86582 0
M  V30 2325 O 219.767 -1.1723 1.383 0
M  V30 2326 C 219.815 1.91202 3.05736 0
M  V30 2327 O 218.919 1.22611 3.93752 0
M  V30 2328 H 218.26 0.415385 0.518027 0
M  V30 2329 H 220.79 1.70586 1.12967 0
M  V30 2330 H 220.8 1.99487 3.55906 0
M  V30 2331 H 219.475 2.95692 2.92471 0
M  V30 2332 H 218.052 1.22554 3.52186 0
M  V30 2333 N 220.237 -1.11381 1.11499 0
M  V30 2334 C 221.167 -2.19509 0.796125 0
M  V30 2335 C 222.148 -1.68458 -0.235796 0
M  V30 2336 O 223.333 -1.93947 -0.0991344 0
M  V30 2337 C 220.463 -3.46475 0.239205 0
M  V30 2338 C 219.417 -4.10744 1.20307 0
M  V30 2339 C 218.743 -5.32293 0.50683 0
M  V30 2340 C 220.043 -4.55597 2.55399 0
M  V30 2341 H 221.737 -2.46439 1.70024 0
M  V30 2342 H 219.283 -1.18446 0.818935 0
M  V30 2343 H 221.236 -4.214 0.00392006 0
M  V30 2344 H 219.96 -3.19006 -0.700206 0
M  V30 2345 H 218.619 -3.37813 1.42399 0
M  V30 2346 H 218.267 -5.01095 -0.437408 0
M  V30 2347 H 217.967 -5.76243 1.1497 0
M  V30 2348 H 219.491 -6.09956 0.280351 0
M  V30 2349 H 220.905 -5.21841 2.37391 0
M  V30 2350 H 219.302 -5.10363 3.15673 0
M  V30 2351 H 220.372 -3.69013 3.14575 0
M  V30 2352 N 221.715 -0.905404 -1.28997 0
M  V30 2353 C 222.645 -0.404212 -2.29975 0
M  V30 2354 C 223.626 0.523784 -1.61835 0
M  V30 2355 O 224.811 0.433298 -1.89304 0
M  V30 2356 C 221.941 0.364042 -3.45387 0
M  V30 2357 C 220.895 -0.474048 -4.25367 0
M  V30 2358 C 220.221 0.422045 -5.33032 0
M  V30 2359 C 221.521 -1.72696 -4.92923 0
M  V30 2360 H 223.215 -1.24807 -2.72146 0
M  V30 2361 H 220.761 -0.601585 -1.30832 0
M  V30 2362 H 222.714 0.725447 -4.15109 0
M  V30 2363 H 221.438 1.24174 -3.02074 0
M  V30 2364 H 220.097 -0.81786 -3.57361 0
M  V30 2365 H 219.745 1.29804 -4.85963 0
M  V30 2366 H 219.445 -0.135057 -5.87445 0
M  V30 2367 H 220.969 0.779517 -6.05604 0
M  V30 2368 H 222.383 -1.43495 -5.55051 0
M  V30 2369 H 220.78 -2.22582 -5.57295 0
M  V30 2370 H 221.85 -2.45964 -4.17887 0
M  V30 2371 N 223.193 1.4272 -0.668489 0
M  V30 2372 C 224.44 2.01624 -0.18814 0
M  V30 2373 C 224.768 1.5282 1.20317 0
M  V30 2374 O 224.023 0.718323 1.8204 0
M  V30 2375 C 224.322 3.57021 -0.164499 0
M  V30 2376 C 223.988 4.25232 -1.49962 0
M  V30 2377 C 222.65 4.4358 -1.8652 0
M  V30 2378 C 225.002 4.63727 -2.37921 0
M  V30 2379 C 222.33 4.97694 -3.10674 0
M  V30 2380 C 224.682 5.19218 -3.6138 0
M  V30 2381 C 223.346 5.3578 -3.98115 0
M  V30 2382 H 222.616 0.737795 -0.0688454 0
M  V30 2383 H 225.263 1.70991 -0.862225 0
M  V30 2384 H 223.568 3.87285 0.593079 0
M  V30 2385 H 225.265 4.00372 0.224271 0
M  V30 2386 H 221.855 4.11306 -1.20522 0
M  V30 2387 H 226.039 4.4923 -2.10964 0
M  V30 2388 H 221.295 5.08702 -3.39164 0
M  V30 2389 H 225.469 5.4799 -4.29743 0
M  V30 2390 H 223.096 5.77475 -4.94395 0
M  V30 2391 N 224.671 0.411399 1.52136 0
M  V30 2392 C 225.899 -0.163076 2.06256 0
M  V30 2393 C 226.314 -1.3867 1.28125 0
M  V30 2394 O 225.671 -1.79423 0.333721 0
M  V30 2395 C 225.722 -0.511252 3.57867 0
M  V30 2396 O 225.443 0.66378 4.33042 0
M  V30 2397 C 226.944 -1.13921 4.28412 0
M  V30 2398 H 224.164 -0.0193897 0.67072 0
M  V30 2399 H 226.708 0.583007 1.96013 0
M  V30 2400 H 224.863 -1.20723 3.6811 0
M  V30 2401 H 225.277 0.372601 5.23175 0
M  V30 2402 H 226.751 -1.33302 5.35663 0
M  V30 2403 H 227.228 -2.11296 3.85033 0
M  V30 2404 H 227.834 -0.483373 4.22544 0
M  V30 2405 N 226.149 -1.5696 0.141893 0
M  V30 2406 C 227.112 -2.15316 -0.785587 0
M  V30 2407 C 228.112 -1.09366 -1.1788 0
M  V30 2408 O 229.302 -1.35031 -1.10056 0
M  V30 2409 C 226.434 -2.71211 -2.06537 0
M  V30 2410 H 227.627 -2.98608 -0.278041 0
M  V30 2411 H 225.18 -1.5593 -0.107519 0
M  V30 2412 H 225.915 -1.91571 -2.6167 0
M  V30 2413 H 225.7 -3.4872 -1.79268 0
M  V30 2414 H 227.19 -3.16189 -2.72789 0
M  V30 2415 N 227.627 0.131896 -1.57047 0
M  V30 2416 C 228.875 0.840269 -1.83804 0
M  V30 2417 C 229.196 1.81017 -0.72512 0
M  V30 2418 O 228.466 1.94272 0.251995 0
M  V30 2419 H 227.046 0.313294 -0.678127 0
M  V30 2420 H 229.708 0.122294 -1.94516 0
M  V30 2421 H 228.804 1.39335 -2.79271 0
M  V30 2422 N 229.106 1.52395 0.401703 0
M  V30 2423 C 230.517 1.58899 0.980202 0
M  V30 2424 C 230.868 0.434032 1.91339 0
M  V30 2425 O 229.993 -0.444619 2.11783 0
M  V30 2426 C 230.588 2.87994 1.78451 0
M  V30 2427 C 229.147 2.96953 2.31292 0
M  V30 2428 C 228.294 2.53903 1.11483 0
M  V30 2429 H 231.245 1.57657 0.18168 0
M  V30 2430 H 231.266 2.73765 2.64259 0
M  V30 2431 H 230.778 3.72035 1.10506 0
M  V30 2432 H 228.879 2.17422 3.02586 0
M  V30 2433 H 228.992 4.01344 2.61649 0
M  V30 2434 H 227.356 2.07925 1.47104 0
M  V30 2435 H 228.139 3.40326 0.450928 0
M  V30 2436 N 230.584 -0.659388 1.43143 0
M  V30 2437 C 231.514 -1.78422 1.50625 0
M  V30 2438 C 232.495 -1.66216 0.361443 0
M  V30 2439 O 233.68 -1.85404 0.577834 0
M  V30 2440 C 230.81 -3.16815 1.42287 0
M  V30 2441 C 229.764 -3.43777 2.54954 0
M  V30 2442 C 229.09 -4.81905 2.31671 0
M  V30 2443 C 230.39 -3.39134 3.97222 0
M  V30 2444 H 232.084 -1.72417 2.44771 0
M  V30 2445 H 229.63 -0.828084 1.17808 0
M  V30 2446 H 231.583 -3.95253 1.46127 0
M  V30 2447 H 230.307 -3.23534 0.446435 0
M  V30 2448 H 228.966 -2.67707 2.50457 0
M  V30 2449 H 228.614 -4.85294 1.32284 0
M  V30 2450 H 228.314 -5.00906 3.07192 0
M  V30 2451 H 229.838 -5.62609 2.37284 0
M  V30 2452 H 231.252 -4.07518 4.03239 0
M  V30 2453 H 229.649 -3.69671 4.72719 0
M  V30 2454 H 230.719 -2.37426 4.22797 0
M  V30 2455 N 232.062 -1.29571 -0.897171 0
M  V30 2456 C 232.972 -1.16808 -2.03453 0
M  V30 2457 C 233.988 -0.0907471 -1.73763 0
M  V30 2458 O 235.164 -0.303312 -1.99103 0
M  V30 2459 C 232.229 -0.848264 -3.36163 0
M  V30 2460 C 231.29 -2.0097 -3.79354 0
M  V30 2461 C 230.523 -1.70505 -5.05731 0
M  V30 2462 O 230.746 -0.62718 -5.66941 0
M  V30 2463 O 229.68 -2.5538 -5.45036 0
M  V30 2464 H 233.506 -2.12325 -2.17144 0
M  V30 2465 H 231.091 -1.09047 -1.02123 0
M  V30 2466 H 232.973 -0.684581 -4.15802 0
M  V30 2467 H 231.648 0.0771071 -3.23608 0
M  V30 2468 H 230.555 -2.22863 -3.00471 0
M  V30 2469 H 231.888 -2.91636 -3.96496 0
M  V30 2470 N 233.54 1.10788 -1.12088 0
M  V30 2471 C 234.45 2.20599 -0.798338 0
M  V30 2472 C 235.466 1.72712 0.21135 0
M  V30 2473 O 236.642 2.01348 0.0458477 0
M  V30 2474 C 233.707 3.45771 -0.253674 0
M  V30 2475 C 232.768 4.08411 -1.32283 0
M  V30 2476 C 232.001 5.27608 -0.80406 0
M  V30 2477 O 232.224 5.69241 0.363478 0
M  V30 2478 O 231.158 5.8101 -1.57198 0
M  V30 2479 H 234.984 2.50614 -1.7154 0
M  V30 2480 H 232.569 1.19454 -0.897275 0
M  V30 2481 H 234.451 4.21376 0.0453691 0
M  V30 2482 H 233.126 3.1739 0.636005 0
M  V30 2483 H 232.033 3.34507 -1.67499 0
M  V30 2484 H 233.366 4.40986 -2.18614 0
M  V30 2485 N 235.018 0.912232 1.28515 0
M  V30 2486 C 235.928 0.404506 2.31086 0
M  V30 2487 C 236.944 -0.50707 1.66448 0
M  V30 2488 O 238.12 -0.393624 1.97516 0
M  V30 2489 C 235.185 -0.348572 3.44943 0
M  V30 2490 C 234.246 0.59604 4.25142 0
M  V30 2491 C 233.479 -0.121194 5.33562 0
M  V30 2492 O 233.702 -1.34317 5.5436 0
M  V30 2493 O 232.636 0.542716 5.99448 0
M  V30 2494 H 236.462 1.25579 2.76521 0
M  V30 2495 H 234.047 0.676998 1.33181 0
M  V30 2496 H 235.929 -0.77395 4.14232 0
M  V30 2497 H 234.604 -1.17571 3.01594 0
M  V30 2498 H 233.511 1.07079 3.58448 0
M  V30 2499 H 234.844 1.38995 4.72167 0
M  V30 2500 N 236.496 -1.42363 0.676048 0
M  V30 2501 C 237.912 -1.55811 0.345718 0
M  V30 2502 C 238.112 -1.65544 -1.14879 0
M  V30 2503 O 237.168 -1.62306 -1.93424 0
M  V30 2504 C 238.481 -2.80746 1.07713 0
M  V30 2505 C 240.029 -2.9452 1.05958 0
M  V30 2506 C 240.504 -4.22318 1.77233 0
M  V30 2507 N 241.995 -4.29233 1.74108 0
M  V30 2508 C 242.73 -5.26935 2.26113 0
M  V30 2509 N 242.226 -6.30783 2.86505 0
M  V30 2510 N 244.019 -5.18741 2.1648 0
M  V30 2511 H 236.17 -1.34289 1.6456 0
M  V30 2512 H 238.433 -0.646506 0.69335 0
M  V30 2513 H 238.139 -2.79696 2.13221 0
M  V30 2514 H 238.013 -3.71676 0.64316 0
M  V30 2515 H 240.4 -2.95097 0.0128255 0
M  V30 2516 H 240.481 -2.04817 1.53244 0
M  V30 2517 H 240.125 -4.22502 2.81877 0
M  V30 2518 H 240.055 -5.10958 1.27396 0
M  V30 2519 H 242.546 -3.54814 1.30059 0
M  V30 2520 H 242.859 -7.01691 3.23805 0
M  V30 2521 H 241.204 -6.31341 2.90575 0
M  V30 2522 H 244.395 -4.36533 1.68987 0
M  V30 2523 H 244.568 -5.94721 2.57316 0
M  V30 2524 N 237.974 -0.419461 -1.51915 0
M  V30 2525 C 239.221 0.152939 -2.01922 0
M  V30 2526 C 239.549 1.4426 -1.30458 0
M  V30 2527 O 238.804 1.91514 -0.402593 0
M  V30 2528 C 239.103 0.437067 -3.54717 0
M  V30 2529 C 238.769 -0.764632 -4.44369 0
M  V30 2530 C 237.431 -1.09423 -4.68594 0
M  V30 2531 C 239.783 -1.56713 -4.97082 0
M  V30 2532 C 237.111 -2.22732 -5.42777 0
M  V30 2533 C 239.463 -2.69107 -5.72507 0
M  V30 2534 C 238.127 -3.02541 -5.95 0
M  V30 2535 H 237.397 0.0559644 -0.738884 0
M  V30 2536 H 240.044 -0.562998 -1.83037 0
M  V30 2537 H 238.349 1.23469 -3.71837 0
M  V30 2538 H 240.046 0.893083 -3.90928 0
M  V30 2539 H 236.636 -0.497775 -4.257 0
M  V30 2540 H 240.82 -1.32571 -4.78266 0
M  V30 2541 H 236.076 -2.48971 -5.58411 0
M  V30 2542 H 240.25 -3.31671 -6.12346 0
M  V30 2543 H 237.877 -3.90457 -6.52264 0
M  V30 2544 N 239.452 1.56882 -0.150215 0
M  V30 2545 C 240.7 1.9584 0.499105 0
M  V30 2546 C 241.021 1.03623 1.65188 0
M  V30 2547 O 240.291 0.0984084 1.95653 0
M  V30 2548 H 238.871 0.723119 0.187373 0
M  V30 2549 H 241.533 1.9358 -0.226466 0
M  V30 2550 H 240.629 2.99638 0.873122 0
M  V30 2551 N 240.93 -0.123565 1.57115 0
M  V30 2552 C 242.177 -0.832153 1.84612 0
M  V30 2553 C 242.505 -1.80093 0.734627 0
M  V30 2554 O 241.76 -1.93766 -0.27442 0
M  V30 2555 C 242.059 -1.62016 3.18568 0
M  V30 2556 C 241.725 -0.796084 4.43817 0
M  V30 2557 C 240.387 -0.568816 4.77826 0
M  V30 2558 C 242.739 -0.221364 5.2073 0
M  V30 2559 C 240.067 0.243499 5.86194 0
M  V30 2560 C 242.419 0.578117 6.29953 0
M  V30 2561 C 241.083 0.815744 6.62497 0
M  V30 2562 H 240.353 -0.304507 0.675542 0
M  V30 2563 H 243 -0.0947248 1.91266 0
M  V30 2564 H 241.305 -2.42837 3.0747 0
M  V30 2565 H 243.002 -2.17231 3.37064 0
M  V30 2566 H 239.592 -0.983307 4.17168 0
M  V30 2567 H 243.776 -0.384173 4.94811 0
M  V30 2568 H 239.032 0.436871 6.09837 0
M  V30 2569 H 243.206 1.03046 6.88734 0
M  V30 2570 H 240.833 1.44701 7.46301 0
M  V30 2571 N 242.408 -1.52605 -0.393616 0
M  V30 2572 C 243.819 -1.59417 -0.971761 0
M  V30 2573 C 244.17 -0.444173 -1.91106 0
M  V30 2574 O 243.295 0.433382 -2.12016 0
M  V30 2575 C 243.89 -2.88936 -1.76921 0
M  V30 2576 C 242.449 -2.98175 -2.29714 0
M  V30 2577 C 241.596 -2.54491 -1.10135 0
M  V30 2578 H 244.547 -1.57751 -0.173317 0
M  V30 2579 H 244.568 -2.75163 -2.62804 0
M  V30 2580 H 244.08 -3.72616 -1.08532 0
M  V30 2581 H 242.181 -2.19024 -3.01429 0
M  V30 2582 H 242.294 -4.02726 -2.59517 0
M  V30 2583 H 240.658 -2.08702 -1.45999 0
M  V30 2584 H 241.441 -3.4056 -0.432874 0
M  V30 2585 N 243.887 0.651787 -1.4349 0
M  V30 2586 C 244.85 1.74647 -1.48429 0
M  V30 2587 C 245.85 1.56513 -0.368817 0
M  V30 2588 O 247.04 1.62385 -0.630623 0
M  V30 2589 C 244.172 3.13533 -1.33827 0
M  V30 2590 H 245.365 1.71649 -2.4592 0
M  V30 2591 H 242.918 0.863573 -1.30277 0
M  V30 2592 H 243.653 3.22142 -0.37349 0
M  V30 2593 H 243.438 3.28101 -2.14691 0
M  V30 2594 H 244.928 3.93356 -1.40218 0
M  V30 2595 N 245.365 1.30045 0.890287 0
M  V30 2596 C 246.612 1.18561 1.64163 0
M  V30 2597 C 246.94 -0.260852 1.92743 0
M  V30 2598 O 246.195 -1.20376 1.54299 0
M  V30 2599 C 246.494 1.95409 2.99249 0
M  V30 2600 C 246.16 3.45066 2.90242 0
M  V30 2601 C 244.822 3.85878 2.87492 0
M  V30 2602 C 247.174 4.4039 2.78758 0
M  V30 2603 C 244.502 5.20314 2.7109 0
M  V30 2604 C 246.854 5.74928 2.63894 0
M  V30 2605 C 245.518 6.14986 2.59516 0
M  V30 2606 H 244.788 0.433846 0.600715 0
M  V30 2607 H 247.435 1.61088 1.03552 0
M  V30 2608 H 245.74 1.45501 3.63781 0
M  V30 2609 H 247.437 1.8392 3.56334 0
M  V30 2610 H 244.027 3.12631 2.93189 0
M  V30 2611 H 248.211 4.09806 2.79952 0
M  V30 2612 H 243.467 5.50449 2.66112 0
M  V30 2613 H 247.641 6.48434 2.53981 0
M  V30 2614 H 245.268 7.19104 2.46565 0
M  V30 2615 N 246.843 -1.10192 1.12674 0
M  V30 2616 C 248.068 -1.86523 0.906853 0
M  V30 2617 C 248.493 -1.80221 -0.538711 0
M  V30 2618 O 247.851 -1.17396 -1.38158 0
M  V30 2619 C 247.899 -3.32758 1.3894 0
M  V30 2620 O 247.003 -4.08449 0.5695 0
M  V30 2621 H 246.344 -0.578678 0.325619 0
M  V30 2622 H 248.874 -1.39203 1.49946 0
M  V30 2623 H 248.884 -3.83608 1.38958 0
M  V30 2624 H 247.559 -3.36661 2.44197 0
M  V30 2625 H 246.136 -3.67427 0.636528 0
M  V30 2626 N 248.321 -0.919034 -1.28029 0
M  V30 2627 C 249.569 -0.553838 -1.94363 0
M  V30 2628 C 249.89 0.906357 -1.72656 0
M  V30 2629 O 249.16 1.64143 -1.0693 0
M  V30 2630 H 247.74 -0.201834 -0.719216 0
M  V30 2631 H 250.402 -1.16954 -1.55909 0
M  V30 2632 H 249.498 -0.752758 -3.02886 0
M  V30 2633 N 249.799 1.42003 -0.683588 0
M  V30 2634 C 251.048 2.00638 -0.206681 0
M  V30 2635 C 251.361 1.5472 1.19671 0
M  V30 2636 O 252.567 2.05833 1.77045 0
M  V30 2637 C 251.023 3.58487 -0.318632 0
M  V30 2638 C 250.631 4.1339 -1.72663 0
M  V30 2639 C 252.375 4.24384 0.0991141 0
M  V30 2640 C 250.282 5.63633 -1.79087 0
M  V30 2641 H 249.212 0.750408 -0.0735107 0
M  V30 2642 H 251.863 1.62624 -0.850048 0
M  V30 2643 H 250.245 3.94047 0.392781 0
M  V30 2644 H 251.419 3.89273 -2.46583 0
M  V30 2645 H 249.734 3.59976 -2.09299 0
M  V30 2646 H 252.331 5.34652 0.0713833 0
M  V30 2647 H 252.674 4.00505 1.13586 0
M  V30 2648 H 253.207 3.93816 -0.561599 0
M  V30 2649 H 249.946 5.92323 -2.80774 0
M  V30 2650 H 249.466 5.89714 -1.09535 0
M  V30 2651 H 251.145 6.28201 -1.5483 0
M  V30 2652 N 251.277 0.427512 1.51691 0
M  V30 2653 C 252.502 -0.143601 2.06902 0
M  V30 2654 C 252.927 -1.36536 1.29382 0
M  V30 2655 O 252.285 -1.78289 0.329043 0
M  V30 2656 C 252.333 -0.454207 3.57728 0
M  V30 2657 O 251.437 -1.54228 3.82475 0
M  V30 2658 H 250.778 -0.00617128 0.663971 0
M  V30 2659 H 253.308 0.606014 1.95419 0
M  V30 2660 H 253.318 -0.707525 4.01818 0
M  V30 2661 H 251.993 0.438812 4.13579 0
M  V30 2662 H 250.57 -1.2797 3.50254 0
M  V30 2663 N 252.755 -1.56801 0.158532 0
M  V30 2664 C 254.171 -1.5837 -0.197774 0
M  V30 2665 C 254.371 -1.17334 -1.63814 0
M  V30 2666 O 253.427 -0.878988 -2.36707 0
M  V30 2667 C 254.74 -3.00615 0.0714459 0
M  V30 2668 C 256.288 -3.12999 0.00864533 0
M  V30 2669 C 256.763 -4.57313 0.250685 0
M  V30 2670 N 258.254 -4.62777 0.198014 0
M  V30 2671 C 258.989 -5.72271 0.359642 0
M  V30 2672 N 258.485 -6.90371 0.579625 0
M  V30 2673 N 260.278 -5.61318 0.296438 0
M  V30 2674 H 252.429 -1.81765 1.09887 0
M  V30 2675 H 254.692 -0.841849 0.435884 0
M  V30 2676 H 254.398 -3.35068 1.06874 0
M  V30 2677 H 254.272 -3.71683 -0.642757 0
M  V30 2678 H 256.659 -2.7838 -0.979217 0
M  V30 2679 H 256.74 -2.44393 0.755359 0
M  V30 2680 H 256.384 -4.92639 1.2357 0
M  V30 2681 H 256.314 -5.24061 -0.516489 0
M  V30 2682 H 258.805 -3.77885 0.0331115 0
M  V30 2683 H 259.118 -7.69689 0.69275 0
M  V30 2684 H 257.463 -6.92264 0.616087 0
M  V30 2685 H 260.654 -4.67932 0.125258 0
M  V30 2686 H 260.827 -6.46599 0.425831 0
M  V30 2687 N 254.233 0.115231 -1.57178 0
M  V30 2688 C 255.163 1.1423 -2.03651 0
M  V30 2689 C 256.144 1.42967 -0.921655 0
M  V30 2690 O 257.329 1.53343 -1.19162 0
M  V30 2691 C 254.459 2.4675 -2.44401 0
M  V30 2692 C 253.413 2.32467 -3.59365 0
M  V30 2693 C 252.739 3.69984 -3.86026 0
M  V30 2694 C 254.039 1.78203 -4.90959 0
M  V30 2695 H 255.733 0.755749 -2.89705 0
M  V30 2696 H 253.279 0.362093 -1.39373 0
M  V30 2697 H 255.232 3.18854 -2.75517 0
M  V30 2698 H 253.956 2.87302 -1.55322 0
M  V30 2699 H 252.615 1.62811 -3.28463 0
M  V30 2700 H 252.263 4.08028 -2.94147 0
M  V30 2701 H 251.963 3.61279 -4.63412 0
M  V30 2702 H 253.487 4.43587 -4.19599 0
M  V30 2703 H 254.901 2.40128 -5.20587 0
M  V30 2704 H 253.298 1.8031 -5.72371 0
M  V30 2705 H 254.368 0.739876 -4.79222 0
M  V30 2706 N 255.711 1.52812 0.385517 0
M  V30 2707 C 256.939 1.71907 1.15133 0
M  V30 2708 C 257.354 0.439004 1.83625 0
M  V30 2709 O 256.711 -0.586765 1.7281 0
M  V30 2710 C 256.762 2.87099 2.19673 0
M  V30 2711 O 256.483 4.10151 1.53973 0
M  V30 2712 C 257.984 3.17902 3.08955 0
M  V30 2713 H 255.204 0.575479 0.345057 0
M  V30 2714 H 257.748 1.99476 0.45052 0
M  V30 2715 H 255.903 2.61982 2.85384 0
M  V30 2716 H 256.317 4.74514 2.23465 0
M  V30 2717 H 257.791 4.01959 3.7833 0
M  V30 2718 H 258.268 2.3243 3.72657 0
M  V30 2719 H 258.874 3.44871 2.48885 0
M  V30 2720 N 257.189 -0.644168 1.43834 0
M  V30 2721 C 258.435 -1.40431 1.47141 0
M  V30 2722 C 258.79 -1.92153 0.0975577 0
M  V30 2723 O 258.083 -1.69924 -0.885232 0
M  V30 2724 C 258.277 -2.59615 2.45631 0
M  V30 2725 C 258.106 -2.1956 3.92458 0
M  V30 2726 C 256.876 -2.07456 4.60749 0
M  V30 2727 C 259.074 -1.79281 4.8204 0
M  V30 2728 N 257.056 -1.60827 5.92459 0
M  V30 2729 C 258.427 -1.43801 6.03093 0
M  V30 2730 C 260.482 -1.66545 4.6922 0
M  V30 2731 C 259.185 -0.968599 7.12749 0
M  V30 2732 C 261.211 -1.21008 5.78888 0
M  V30 2733 C 260.573 -0.864711 6.99072 0
M  V30 2734 H 256.672 -0.509182 0.593513 0
M  V30 2735 H 259.256 -0.740351 1.80075 0
M  V30 2736 H 257.427 -3.23658 2.1471 0
M  V30 2737 H 259.159 -3.26357 2.39318 0
M  V30 2738 H 255.914 -2.275 4.1538 0
M  V30 2739 H 256.338 -1.39848 6.62398 0
M  V30 2740 H 260.98 -1.91883 3.7675 0
M  V30 2741 H 258.698 -0.702715 8.05039 0
M  V30 2742 H 262.284 -1.11631 5.7099 0
M  V30 2743 H 261.164 -0.517736 7.82489 0
M  V30 2744 N 258.668 -1.30515 -0.883378 0
M  V30 2745 C 259.598 -1.19607 -2.00541 0
M  V30 2746 C 260.579 -0.086346 -1.69881 0
M  V30 2747 O 261.764 -0.268654 -1.92333 0
M  V30 2748 C 258.894 -0.888758 -3.35736 0
M  V30 2749 C 257.848 -1.95659 -3.8066 0
M  V30 2750 C 257.174 -1.50224 -5.13164 0
M  V30 2751 C 258.474 -3.36788 -3.99213 0
M  V30 2752 H 260.168 -2.13476 -2.09925 0
M  V30 2753 H 257.714 -1.02775 -1.00863 0
M  V30 2754 H 259.667 -0.799094 -4.13754 0
M  V30 2755 H 258.391 0.0856125 -3.26488 0
M  V30 2756 H 257.05 -2.03591 -3.04871 0
M  V30 2757 H 256.698 -0.516092 -5.00345 0
M  V30 2758 H 256.398 -2.2165 -5.44192 0
M  V30 2759 H 257.922 -1.42639 -5.93706 0
M  V30 2760 H 259.336 -3.31605 -4.67665 0
M  V30 2761 H 257.733 -4.06314 -4.41621 0
M  V30 2762 H 258.803 -3.78561 -3.03017 0
M  V30 2763 N 260.146 1.09593 -1.13257 0
M  V30 2764 C 261.392 1.82003 -0.89458 0
M  V30 2765 C 261.725 1.85402 0.577906 0
M  V30 2766 O 261 1.32099 1.42759 0
M  V30 2767 C 261.283 3.28237 -1.48096 0
M  V30 2768 C 261.136 3.3312 -3.02244 0
M  V30 2769 C 262.455 4.24871 -1.14774 0
M  V30 2770 H 259.574 0.66077 -0.326424 0
M  V30 2771 H 262.216 1.28389 -1.40058 0
M  V30 2772 H 260.366 3.74024 -1.05062 0
M  V30 2773 H 262.038 2.95748 -3.54021 0
M  V30 2774 H 260.281 2.72756 -3.37323 0
M  V30 2775 H 260.952 4.3613 -3.38371 0
M  V30 2776 H 263.428 3.87361 -1.51957 0
M  V30 2777 H 262.304 5.25532 -1.58452 0
M  V30 2778 H 262.565 4.42058 -0.0611849 0
M  V30 2779 N 261.624 0.925811 1.2754 0
M  V30 2780 C 262.849 0.580924 1.99098 0
M  V30 2781 C 263.274 -0.833555 1.68622 0
M  V30 2782 O 262.632 -1.55903 0.925422 0
M  V30 2783 C 262.68 0.811186 3.51358 0
M  V30 2784 O 261.784 -0.124129 4.12213 0
M  V30 2785 H 261.125 0.223873 0.625122 0
M  V30 2786 H 263.655 1.24455 1.62395 0
M  V30 2787 H 263.665 0.72601 4.01489 0
M  V30 2788 H 262.34 1.84227 3.72872 0
M  V30 2789 H 260.917 0.0108006 3.72898 0
M  V30 2790 N 263.102 -1.41638 0.69111 0
M  V30 2791 C 264.032 -2.3347 0.037248 0
M  V30 2792 C 265.013 -1.51575 -0.771947 0
M  V30 2793 O 266.198 -1.80126 -0.72582 0
M  V30 2794 C 263.328 -3.35354 -0.903064 0
M  V30 2795 C 262.282 -4.27526 -0.201288 0
M  V30 2796 C 261.608 -5.19747 -1.25565 0
M  V30 2797 C 262.908 -5.13959 0.929689 0
M  V30 2798 H 264.602 -2.88397 0.804227 0
M  V30 2799 H 262.148 -1.38669 0.388189 0
M  V30 2800 H 264.101 -3.98519 -1.36969 0
M  V30 2801 H 262.825 -2.78767 -1.70166 0
M  V30 2802 H 261.484 -3.65779 0.245265 0
M  V30 2803 H 261.132 -4.59479 -2.04666 0
M  V30 2804 H 260.832 -5.8225 -0.791128 0
M  V30 2805 H 262.356 -5.85789 -1.72288 0
M  V30 2806 H 263.77 -5.70718 0.543546 0
M  V30 2807 H 262.167 -5.85379 1.32103 0
M  V30 2808 H 263.237 -4.51389 1.77133 0
M  V30 2809 N 264.58 -0.43555 -1.51462 0
M  V30 2810 C 265.827 0.131514 -2.02072 0
M  V30 2811 C 266.155 1.42868 -1.31981 0
M  V30 2812 O 265.41 1.91076 -0.422883 0
M  V30 2813 C 265.709 0.39942 -3.55161 0
M  V30 2814 C 265.375 -0.81172 -4.43533 0
M  V30 2815 C 264.037 -1.14387 -4.67407 0
M  V30 2816 C 266.389 -1.61976 -4.95392 0
M  V30 2817 C 263.717 -2.28477 -5.40384 0
M  V30 2818 C 266.069 -2.75164 -5.6962 0
M  V30 2819 C 264.733 -3.08835 -5.91758 0
M  V30 2820 H 264.003 0.0481244 -0.739436 0
M  V30 2821 H 266.65 -0.58238 -1.8243 0
M  V30 2822 H 264.955 1.19519 -3.73125 0
M  V30 2823 H 266.652 0.85157 -3.91854 0
M  V30 2824 H 263.242 -0.542898 -4.25148 0
M  V30 2825 H 267.426 -1.37637 -4.76833 0
M  V30 2826 H 262.682 -2.5488 -5.55739 0
M  V30 2827 H 266.856 -3.38147 -6.08793 0
M  V30 2828 H 264.483 -3.97353 -6.48086 0
M  V30 2829 N 266.058 1.56714 -0.166846 0
M  V30 2830 C 267.306 1.96358 0.478305 0
M  V30 2831 C 267.627 1.0537 1.6408 0
M  V30 2832 O 266.897 0.119154 1.95537 0
M  V30 2833 H 265.477 0.725065 0.179692 0
M  V30 2834 H 268.139 1.93329 -0.246985 0
M  V30 2835 H 267.235 3.00547 0.841292 0
M  V30 2836 N 267.536 -0.106894 1.57237 0
M  V30 2837 C 268.446 -1.14911 2.0453 0
M  V30 2838 C 269.462 -1.44592 0.96795 0
M  V30 2839 O 270.638 -1.55468 1.2803 0
M  V30 2840 C 267.703 -2.45272 2.45036 0
M  V30 2841 C 266.764 -2.22879 3.66911 0
M  V30 2842 C 265.997 -3.47024 4.05475 0
M  V30 2843 O 266.22 -4.54804 3.44252 0
M  V30 2844 O 265.154 -3.3731 4.98504 0
M  V30 2845 H 268.98 -0.777461 2.9358 0
M  V30 2846 H 266.565 -0.318563 1.45964 0
M  V30 2847 H 268.447 -3.22055 2.71769 0
M  V30 2848 H 267.122 -2.81886 1.59129 0
M  V30 2849 H 266.029 -1.43915 3.45311 0
M  V30 2850 H 267.362 -1.91163 4.53561 0
M  V30 2851 N 269.014 -1.53014 -0.377408 0
M  V30 2852 C 269.944 -1.81589 -1.46791 0
M  V30 2853 C 270.925 -0.668622 -1.56408 0
M  V30 2854 O 272.11 -0.917337 -1.71168 0
M  V30 2855 C 269.24 -1.99519 -2.8427 0
M  V30 2856 C 268.194 -3.15249 -2.89486 0
M  V30 2857 C 267.52 -3.18451 -4.29527 0
M  V30 2858 C 268.82 -4.54084 -2.58079 0
M  V30 2859 H 270.514 -2.7291 -1.23127 0
M  V30 2860 H 268.06 -1.31319 -0.590883 0
M  V30 2861 H 270.013 -2.18092 -3.60575 0
M  V30 2862 H 268.737 -1.04897 -3.09296 0
M  V30 2863 H 267.396 -2.96477 -2.15631 0
M  V30 2864 H 267.044 -2.2149 -4.5161 0
M  V30 2865 H 266.744 -3.962 -4.33934 0
M  V30 2866 H 268.268 -3.39193 -5.07721 0
M  V30 2867 H 269.682 -4.72899 -3.24098 0
M  V30 2868 H 268.079 -5.33987 -2.7382 0
M  V30 2869 H 269.149 -4.60006 -1.53372 0
M  V30 2870 N 270.492 0.636531 -1.44174 0
M  V30 2871 C 271.717 1.42847 -1.50364 0
M  V30 2872 C 272.142 1.87665 -0.127867 0
M  V30 2873 O 271.5 1.58408 0.88185 0
M  V30 2874 C 271.548 2.62854 -2.4686 0
M  V30 2875 O 270.652 3.62501 -1.9664 0
M  V30 2876 H 269.993 0.427642 -0.507955 0
M  V30 2877 H 272.523 0.777422 -1.89255 0
M  V30 2878 H 272.533 3.10465 -2.64718 0
M  V30 2879 H 271.208 2.29578 -3.46795 0
M  V30 2880 H 269.785 3.21735 -1.88523 0
M  V30 2881 N 271.97 1.30982 0.876444 0
M  V30 2882 C 272.9 1.20668 1.99903 0
M  V30 2883 C 273.881 0.095354 1.69833 0
M  V30 2884 O 275.066 0.27885 1.92188 0
M  V30 2885 C 272.196 0.90655 3.3526 0
M  V30 2886 C 271.15 1.97675 3.79617 0
M  V30 2887 C 270.476 1.52943 5.1236 0
M  V30 2888 C 271.776 3.389 3.97422 0
M  V30 2889 H 273.47 2.14586 2.0879 0
M  V30 2890 H 271.016 1.03308 1.00317 0
M  V30 2891 H 272.969 0.821025 4.13324 0
M  V30 2892 H 271.693 -0.0682969 3.26529 0
M  V30 2893 H 270.352 2.05205 3.03787 0
M  V30 2894 H 270 0.54262 5.00065 0
M  V30 2895 H 269.7 2.24532 5.43009 0
M  V30 2896 H 271.224 1.45786 5.92941 0
M  V30 2897 H 272.638 3.34081 4.659 0
M  V30 2898 H 271.035 4.0865 4.3946 0
M  V30 2899 H 272.105 3.80163 3.01006 0
M  V30 2900 N 273.449 -1.08991 1.13837 0
M  V30 2901 C 274.695 -1.81526 0.90422 0
M  V30 2902 C 275.028 -1.85706 -0.568066 0
M  V30 2903 O 274.303 -1.32855 -1.42056 0
M  V30 2904 C 274.586 -3.27447 1.49835 0
M  V30 2905 C 274.439 -3.31512 3.04006 0
M  V30 2906 C 275.758 -4.24256 1.17025 0
M  V30 2907 H 272.877 -0.659029 0.329923 0
M  V30 2908 H 275.519 -1.27644 1.40737 0
M  V30 2909 H 273.669 -3.73462 1.07044 0
M  V30 2910 H 275.341 -2.93867 3.55584 0
M  V30 2911 H 273.584 -2.70963 3.38765 0
M  V30 2912 H 274.255 -4.34329 3.40679 0
M  V30 2913 H 276.731 -3.86549 1.54009 0
M  V30 2914 H 275.607 -5.24684 1.61237 0
M  V30 2915 H 275.868 -4.42019 0.0846274 0
M  V30 2916 N 274.927 -0.932562 -1.27047 0
M  V30 2917 C 276.152 -0.591474 -1.98787 0
M  V30 2918 C 276.577 0.824601 -1.69062 0
M  V30 2919 O 275.935 1.5541 -0.933677 0
M  V30 2920 C 275.983 -0.829808 -3.50922 0
M  V30 2921 O 275.087 0.102266 -4.12273 0
M  V30 2922 H 274.428 -0.227185 -0.623926 0
M  V30 2923 H 276.958 -1.25314 -1.61733 0
M  V30 2924 H 276.968 -0.747292 -4.01098 0
M  V30 2925 H 275.643 -1.86201 -3.7189 0
M  V30 2926 H 274.22 -0.0305761 -3.72887 0
M  V30 2927 N 276.405 1.4127 -0.698611 0
M  V30 2928 C 277.368 2.29158 -0.044132 0
M  V30 2929 C 278.368 1.44529 0.704841 0
M  V30 2930 O 279.558 1.65643 0.539276 0
M  V30 2931 C 276.69 3.27459 0.947809 0
M  V30 2932 H 277.883 2.88529 -0.817994 0
M  V30 2933 H 275.436 1.49307 -0.46228 0
M  V30 2934 H 276.171 2.73073 1.74933 0
M  V30 2935 H 275.956 3.8991 0.41385 0
M  V30 2936 H 277.446 3.93311 1.40344 0
M  V30 2937 N 277.883 0.443576 1.51229 0
M  V30 2938 C 279.111 -0.11929 2.06556 0
M  V30 2939 C 279.526 -1.35921 1.31038 0
M  V30 2940 O 278.883 -1.78675 0.371704 0
M  V30 2941 C 278.934 -0.435228 3.5887 0
M  V30 2942 O 278.655 0.755486 4.31537 0
M  V30 2943 C 280.156 -1.04808 4.30732 0
M  V30 2944 H 277.376 -0.0051584 0.67098 0
M  V30 2945 H 279.92 0.624453 1.94733 0
M  V30 2946 H 278.075 -1.12887 3.70588 0
M  V30 2947 H 278.489 0.483491 5.22267 0
M  V30 2948 H 279.963 -1.2191 5.3837 0
M  V30 2949 H 280.44 -2.03081 3.89429 0
M  V30 2950 H 281.046 -0.393637 4.23474 0
M  V30 2951 N 279.361 -1.56624 0.175154 0
M  V30 2952 C 280.291 -2.21155 -0.749195 0
M  V30 2953 C 281.272 -1.16836 -1.23626 0
M  V30 2954 O 282.457 -1.45277 -1.28873 0
M  V30 2955 C 279.587 -2.8553 -1.97711 0
M  V30 2956 C 278.541 -3.95921 -1.62575 0
M  V30 2957 C 277.867 -4.47365 -2.92864 0
M  V30 2958 C 279.167 -5.15323 -0.850838 0
M  V30 2959 H 280.861 -2.98653 -0.211295 0
M  V30 2960 H 278.407 -1.43651 -0.100188 0
M  V30 2961 H 280.36 -3.2935 -2.62881 0
M  V30 2962 H 279.084 -2.05406 -2.53921 0
M  V30 2963 H 277.743 -3.52762 -0.997719 0
M  V30 2964 H 277.391 -3.64027 -3.47122 0
M  V30 2965 H 277.091 -5.21839 -2.70106 0
M  V30 2966 H 278.615 -4.93873 -3.59056 0
M  V30 2967 H 280.029 -5.55812 -1.40521 0
M  V30 2968 H 278.426 -5.95739 -0.722154 0
M  V30 2969 H 279.496 -4.84661 0.152082 0
M  V30 2970 N 280.839 0.0985539 -1.57292 0
M  V30 2971 C 281.749 1.13824 -2.05137 0
M  V30 2972 C 282.765 1.44076 -0.975604 0
M  V30 2973 O 283.941 1.54786 -1.28853 0
M  V30 2974 C 281.006 2.43969 -2.46333 0
M  V30 2975 C 280.067 2.2093 -3.68087 0
M  V30 2976 C 279.3 3.44869 -4.0731 0
M  V30 2977 O 279.523 4.52972 -3.46659 0
M  V30 2978 O 278.457 3.34661 -5.00285 0
M  V30 2979 H 282.283 0.761881 -2.93988 0
M  V30 2980 H 279.868 0.310818 -1.46131 0
M  V30 2981 H 281.75 3.20609 -2.73473 0
M  V30 2982 H 280.425 2.81038 -1.60621 0
M  V30 2983 H 279.332 1.42081 -3.46069 0
M  V30 2984 H 280.665 1.88755 -4.54568 0
M  V30 2985 N 282.317 1.53212 0.369288 0
M  V30 2986 C 283.227 1.82342 1.47609 0
M  V30 2987 C 284.243 0.711532 1.58787 0
M  V30 2988 O 285.419 1.0012 1.74751 0
M  V30 2989 C 282.484 2.00393 2.8292 0
M  V30 2990 C 281.545 3.24297 2.81301 0
M  V30 2991 C 280.778 3.41478 4.10157 0
M  V30 2992 O 281.001 2.63033 5.06132 0
M  V30 2993 O 279.935 4.34817 4.16194 0
M  V30 2994 H 283.761 2.76366 1.25918 0
M  V30 2995 H 281.346 1.38547 0.559034 0
M  V30 2996 H 283.228 2.13859 3.63101 0
M  V30 2997 H 281.903 1.09559 3.04596 0
M  V30 2998 H 280.81 3.16257 1.99831 0
M  V30 2999 H 282.143 4.15041 2.64578 0
M  V30 3000 N 283.795 -0.628877 1.44509 0
M  V30 3001 C 285.211 -0.947305 1.28446 0
M  V30 3002 C 285.411 -2.00275 0.221872 0
M  V30 3003 O 284.467 -2.49447 -0.391471 0
M  V30 3004 C 285.78 -1.40843 2.65676 0
M  V30 3005 C 287.328 -1.52379 2.73404 0
M  V30 3006 C 287.803 -2.01875 4.11109 0
M  V30 3007 N 289.294 -2.09142 4.13296 0
M  V30 3008 C 290.029 -2.48615 5.16699 0
M  V30 3009 N 289.525 -2.87209 6.30462 0
M  V30 3010 N 291.318 -2.48768 5.04054 0
M  V30 3011 H 283.469 0.0690977 2.12288 0
M  V30 3012 H 285.732 -0.0317164 0.947469 0
M  V30 3013 H 285.438 -0.707206 3.44516 0
M  V30 3014 H 285.312 -2.37902 2.92716 0
M  V30 3015 H 287.699 -2.21598 1.9488 0
M  V30 3016 H 287.78 -0.536898 2.50102 0
M  V30 3017 H 287.424 -1.3325 4.90109 0
M  V30 3018 H 287.354 -3.0144 4.31789 0
M  V30 3019 H 289.845 -1.81991 3.31191 0
M  V30 3020 H 290.158 -3.16149 7.05174 0
M  V30 3021 H 288.503 -2.84955 6.33897 0
M  V30 3022 H 291.694 -2.18009 4.14234 0
M  V30 3023 H 291.867 -2.79207 5.84763 0
M  V30 3024 N 285.273 -1.31445 -0.869486 0
M  V30 3025 C 286.22 -1.19135 -1.97675 0
M  V30 3026 C 287.19 -0.0770266 -1.65921 0
M  V30 3027 O 288.375 -0.249972 -1.89155 0
M  V30 3028 C 285.515 -0.905149 -3.33018 0
M  V30 3029 C 284.628 -2.10285 -3.77365 0
M  V30 3030 C 283.763 -1.75339 -5.01427 0
M  V30 3031 C 282.802 -2.91515 -5.38224 0
M  V30 3032 N 281.939 -2.56762 -6.53466 0
M  V30 3033 H 286.779 -2.13853 -2.07535 0
M  V30 3034 H 284.316 -1.06379 -1.01597 0
M  V30 3035 H 286.274 -0.719765 -4.10944 0
M  V30 3036 H 284.904 0.00519624 -3.228 0
M  V30 3037 H 283.956 -2.39899 -2.95216 0
M  V30 3038 H 285.268 -2.97237 -4.00564 0
M  V30 3039 H 284.422 -1.53266 -5.87022 0
M  V30 3040 H 283.161 -0.855801 -4.80133 0
M  V30 3041 H 282.166 -3.14237 -4.51149 0
M  V30 3042 H 283.391 -3.81985 -5.61484 0
M  V30 3043 H 281.337 -1.69526 -6.33717 0
M  V30 3044 H 281.254 -3.37243 -6.76612 0
M  V30 3045 H 282.522 -2.38083 -7.42251 0
M  V30 3046 N 286.751 1.08385 -1.14413 0
M  V30 3047 C 287.661 2.18856 -0.844951 0
M  V30 3048 C 288.677 1.73121 0.174668 0
M  V30 3049 O 289.853 2.014 0.00312857 0
M  V30 3050 C 286.918 3.45155 -0.32696 0
M  V30 3051 C 285.979 4.05513 -1.40916 0
M  V30 3052 C 285.212 5.25784 -0.915793 0
M  V30 3053 O 285.435 5.69884 0.242651 0
M  V30 3054 O 284.369 5.77545 -1.69487 0
M  V30 3055 H 288.195 2.46919 -1.76818 0
M  V30 3056 H 285.78 1.17524 -0.922411 0
M  V30 3057 H 287.662 4.21377 -0.0440211 0
M  V30 3058 H 286.337 3.18668 0.568539 0
M  V30 3059 H 285.244 3.30879 -1.74556 0
M  V30 3060 H 286.577 4.3625 -2.27919 0
M  V30 3061 N 288.23 0.939286 1.26551 0
M  V30 3062 C 289.507 0.5038 1.89001 0
M  V30 3063 C 289.887 -1.01854 1.84903 0
M  V30 3064 O 289.235 -1.87773 1.30206 0
M  V30 3065 C 289.445 1.063 3.32417 0
M  V30 3066 C 290.793 1.13051 4.09273 0
M  V30 3067 O 291.817 1.01345 3.41479 0
M  V30 3068 O 290.676 1.31233 5.30509 0
M  V30 3069 H 287.77 0.163897 0.810597 0
M  V30 3070 H 290.316 1.03173 1.34735 0
M  V30 3071 H 289.088 2.10665 3.29752 0
M  V30 3072 H 288.711 0.517408 3.94219 0
M  V30 3073 N 289.708 -1.40897 0.706093 0
M  V30 3074 C 290.64 -2.29199 0.00815776 0
M  V30 3075 C 291.653 -1.45336 -0.733582 0
M  V30 3076 O 292.842 -1.68727 -0.582537 0
M  V30 3077 C 289.942 -3.23417 -1.01265 0
M  V30 3078 C 289.115 -4.36089 -0.338387 0
M  V30 3079 C 288.174 -5.10811 -1.26326 0
M  V30 3080 O 287.2 -5.64215 -0.751651 0
M  V30 3081 N 288.402 -5.19269 -2.595 0
M  V30 3082 H 291.167 -2.89738 0.766297 0
M  V30 3083 H 288.728 -1.52164 0.55296 0
M  V30 3084 H 290.72 -3.70276 -1.63334 0
M  V30 3085 H 289.29 -2.64112 -1.67223 0
M  V30 3086 H 288.51 -3.91479 0.462352 0
M  V30 3087 H 289.798 -5.08634 0.130031 0
M  V30 3088 H 289.196 -4.77347 -3.03573 0
M  V30 3089 H 287.753 -5.69667 -3.16737 0
M  V30 3090 N 291.186 -0.45159 -1.50991 0
M  V30 3091 C 292.416 0.108177 -2.06317 0
M  V30 3092 C 292.824 1.35774 -1.31765 0
M  V30 3093 O 292.167 1.79838 -0.374694 0
M  V30 3094 C 292.229 0.481659 -3.56259 0
M  V30 3095 C 291.893 -0.663114 -4.52163 0
M  V30 3096 C 292.89 -1.53947 -4.96585 0
M  V30 3097 C 290.575 -0.8479 -4.95092 0
M  V30 3098 C 292.569 -2.58518 -5.82621 0
M  V30 3099 C 290.256 -1.89686 -5.80915 0
M  V30 3100 C 291.254 -2.76388 -6.24579 0
M  V30 3101 O 290.942 -3.79482 -7.08695 0
M  V30 3102 H 290.674 0.00499183 -0.675982 0
M  V30 3103 H 293.228 -0.633659 -1.95381 0
M  V30 3104 H 291.458 1.27641 -3.65027 0
M  V30 3105 H 293.147 0.974233 -3.94035 0
M  V30 3106 H 293.913 -1.4083 -4.64103 0
M  V30 3107 H 289.792 -0.18258 -4.60638 0
M  V30 3108 H 293.336 -3.26224 -6.16623 0
M  V30 3109 H 289.233 -2.02817 -6.12809 0
M  V30 3110 H 290.001 -3.76234 -7.26905 0
M  V30 3111 N 292.664 1.56529 -0.183458 0
M  V30 3112 C 293.597 2.14417 0.781052 0
M  V30 3113 C 294.575 1.07761 1.21763 0
M  V30 3114 O 295.759 1.35807 1.30724 0
M  V30 3115 C 292.886 2.69361 2.05335 0
M  V30 3116 C 291.932 3.885 1.75982 0
M  V30 3117 S 292.765 5.27568 0.918256 0
M  V30 3118 C 293.921 5.85926 2.20095 0
M  V30 3119 H 294.154 2.95893 0.2889 0
M  V30 3120 H 291.687 1.54368 0.0313844 0
M  V30 3121 H 293.645 3.01662 2.78406 0
M  V30 3122 H 292.306 1.87949 2.51663 0
M  V30 3123 H 291.499 4.25314 2.70415 0
M  V30 3124 H 291.101 3.57149 1.10999 0
M  V30 3125 H 293.393 5.99579 3.15453 0
M  V30 3126 H 294.336 6.82761 1.87731 0
M  V30 3127 H 294.744 5.14438 2.32409 0
M  V30 3128 N 294.142 -0.090211 1.57342 0
M  V30 3129 C 295.089 -1.10909 2.02405 0
M  V30 3130 C 296.059 -1.39523 0.901252 0
M  V30 3131 O 297.244 -1.50903 1.1676 0
M  V30 3132 C 294.384 -2.42277 2.45755 0
M  V30 3133 C 293.497 -2.20352 3.71576 0
M  V30 3134 C 292.632 -3.45154 4.03785 0
M  V30 3135 C 291.671 -3.18512 5.22701 0
M  V30 3136 N 290.808 -4.35593 5.50639 0
M  V30 3137 H 295.648 -0.71782 2.89225 0
M  V30 3138 H 293.185 -0.342901 1.43048 0
M  V30 3139 H 295.143 -3.18951 2.68935 0
M  V30 3140 H 293.773 -2.79242 1.61938 0
M  V30 3141 H 292.825 -1.34458 3.55844 0
M  V30 3142 H 294.137 -1.96661 4.58395 0
M  V30 3143 H 293.291 -4.30233 4.27767 0
M  V30 3144 H 292.03 -3.71904 3.15498 0
M  V30 3145 H 291.035 -2.31827 4.98534 0
M  V30 3146 H 292.26 -2.93103 6.12591 0
M  V30 3147 H 290.206 -4.6241 4.6531 0
M  V30 3148 H 290.123 -4.1511 6.31838 0
M  V30 3149 H 291.391 -5.21723 5.7916 0
M  V30 3150 N 295.62 -1.53406 -0.361157 0
M  V30 3151 C 296.553 -1.74946 -1.46524 0
M  V30 3152 C 297.531 -0.59795 -1.51206 0
M  V30 3153 O 298.715 -0.831062 -1.69191 0
M  V30 3154 C 295.842 -1.83224 -2.84863 0
M  V30 3155 C 294.888 -3.05233 -2.97885 0
M  V30 3156 S 295.721 -4.6466 -2.66179 0
M  V30 3157 C 296.877 -4.75793 -4.06659 0
M  V30 3158 H 297.11 -2.68319 -1.28033 0
M  V30 3159 H 294.643 -1.44051 -0.555764 0
M  V30 3160 H 296.601 -1.88679 -3.64569 0
M  V30 3161 H 295.262 -0.908948 -3.00661 0
M  V30 3162 H 294.455 -3.07648 -3.9921 0
M  V30 3163 H 294.057 -2.97913 -2.26106 0
M  V30 3164 H 296.349 -4.5612 -5.0096 0
M  V30 3165 H 297.292 -5.7786 -4.09247 0
M  V30 3166 H 297.7 -4.04389 -3.93865 0
M  V30 3167 N 297.098 0.621204 -1.44841 0
M  V30 3168 C 298.326 1.40752 -1.51646 0
M  V30 3169 C 298.741 1.88246 -0.144549 0
M  V30 3170 O 298.098 1.61422 0.851416 0
M  V30 3171 C 298.149 2.62119 -2.4895 0
M  V30 3172 O 297.87 2.16602 -3.80808 0
M  V30 3173 C 299.371 3.55135 -2.65319 0
M  V30 3174 H 296.591 0.431325 -0.514004 0
M  V30 3175 H 299.135 0.758835 -1.899 0
M  V30 3176 H 297.29 3.23058 -2.13805 0
M  V30 3177 H 297.704 2.95358 -4.33433 0
M  V30 3178 H 299.178 4.36874 -3.37409 0
M  V30 3179 H 299.655 4.04592 -1.70886 0
M  V30 3180 H 300.261 3.00058 -3.01405 0
M  V30 3181 N 298.576 1.31904 0.862503 0
M  V30 3182 C 299.822 1.22197 1.61851 0
M  V30 3183 C 300.155 -0.217641 1.92977 0
M  V30 3184 O 299.43 -1.15264 1.56666 0
M  V30 3185 C 299.713 2.07378 2.94391 0
M  V30 3186 C 299.566 3.59678 2.70096 0
M  V30 3187 C 300.885 1.92891 3.95577 0
M  V30 3188 H 298.004 0.445255 0.587296 0
M  V30 3189 H 300.646 1.6177 0.99651 0
M  V30 3190 H 298.796 1.73758 3.47477 0
M  V30 3191 H 300.468 4.03472 2.23625 0
M  V30 3192 H 298.711 3.82735 2.04197 0
M  V30 3193 H 299.382 4.14595 3.64438 0
M  V30 3194 H 301.858 2.22327 3.51724 0
M  V30 3195 H 300.734 2.54781 4.86187 0
M  V30 3196 H 300.995 0.894315 4.3296 0
M  V30 3197 N 300.054 -1.07777 1.14986 0
M  V30 3198 C 301.294 -1.81888 0.932527 0
M  V30 3199 C 301.658 -1.84509 -0.531064 0
M  V30 3200 O 302.859 -2.54448 -0.866577 0
M  V30 3201 C 301.13 -3.23244 1.52473 0
M  V30 3202 S 302.689 -4.14154 1.44989 0
M  V30 3203 H 299.507 -0.626752 0.335712 0
M  V30 3204 H 302.109 -1.29503 1.46455 0
M  V30 3205 H 300.813 -3.18922 2.58296 0
M  V30 3206 H 300.344 -3.80704 0.991381 0
M  V30 3207 H 302.359 -4.94247 0.439799 0
M  V30 3208 N 301.532 -0.945985 -1.26051 0
M  V30 3209 C 302.462 -0.477172 -2.28572 0
M  V30 3210 C 303.443 0.472032 -1.63419 0
M  V30 3211 O 304.628 0.372853 -1.90587 0
M  V30 3212 C 301.758 0.253975 -3.4637 0
M  V30 3213 C 300.712 -0.609135 -4.23643 0
M  V30 3214 C 300.038 0.252252 -5.34105 0
M  V30 3215 C 301.338 -1.8829 -4.8718 0
M  V30 3216 H 303.032 -1.33402 -2.68038 0
M  V30 3217 H 300.578 -0.642904 -1.28852 0
M  V30 3218 H 302.531 0.593016 -4.17207 0
M  V30 3219 H 301.255 1.145 -3.05871 0
M  V30 3220 H 299.914 -0.931138 -3.54578 0
M  V30 3221 H 299.562 1.14278 -4.89846 0
M  V30 3222 H 299.262 -0.32188 -5.86718 0
M  V30 3223 H 300.786 0.586454 -6.07777 0
M  V30 3224 H 302.2 -1.61081 -5.50205 0
M  V30 3225 H 300.597 -2.40199 -5.49931 0
M  V30 3226 H 301.667 -2.59134 -4.09851 0
M  V30 3227 N 303.011 1.40521 -0.713556 0
M  V30 3228 C 303.921 2.34522 -0.0606667 0
M  V30 3229 C 304.937 1.57193 0.74607 0
M  V30 3230 O 306.113 1.89591 0.679493 0
M  V30 3231 C 303.178 3.36081 0.851491 0
M  V30 3232 C 302.239 4.29286 0.0349339 0
M  V30 3233 C 301.472 5.25994 0.903649 0
M  V30 3234 O 301.695 5.28616 2.14292 0
M  V30 3235 O 300.629 6.00918 0.343723 0
M  V30 3236 H 304.455 2.91968 -0.835972 0
M  V30 3237 H 302.04 1.41681 -0.47402 0
M  V30 3238 H 303.922 3.98369 1.37404 0
M  V30 3239 H 302.597 2.81052 1.60598 0
M  V30 3240 H 301.504 3.70289 -0.532633 0
M  V30 3241 H 302.837 4.87462 -0.681287 0
M  V30 3242 N 304.489 0.459591 1.5075 0
M  V30 3243 C 305.717 -0.0973749 2.06671 0
M  V30 3244 C 306.132 -1.34524 1.32472 0
M  V30 3245 O 305.489 -1.7827 0.390634 0
M  V30 3246 C 305.54 -0.39714 3.59312 0
M  V30 3247 O 305.261 0.801214 4.30711 0
M  V30 3248 C 306.762 -1.00234 4.31819 0
M  V30 3249 H 303.982 0.00195854 0.670997 0
M  V30 3250 H 306.526 0.645072 1.94059 0
M  V30 3251 H 304.681 -1.08951 3.71764 0
M  V30 3252 H 305.095 0.538857 5.21725 0
M  V30 3253 H 306.569 -1.16193 5.39632 0
M  V30 3254 H 307.046 -1.98939 3.91561 0
M  V30 3255 H 307.652 -0.348699 4.23868 0
M  V30 3256 N 305.967 -1.56429 0.191757 0
M  V30 3257 C 306.877 -2.22541 -0.742481 0
M  V30 3258 C 307.893 -1.22342 -1.23727 0
M  V30 3259 O 309.069 -1.55069 -1.28513 0
M  V30 3260 C 306.134 -2.8692 -1.94623 0
M  V30 3261 C 305.195 -4.02378 -1.49633 0
M  V30 3262 C 304.428 -4.63678 -2.6427 0
M  V30 3263 O 304.651 -4.23895 -3.81666 0
M  V30 3264 O 303.585 -5.53202 -2.37174 0
M  V30 3265 H 307.411 -3.02977 -0.209462 0
M  V30 3266 H 304.996 -1.49353 -0.0373832 0
M  V30 3267 H 306.878 -3.27663 -2.64982 0
M  V30 3268 H 305.553 -2.09466 -2.46791 0
M  V30 3269 H 304.46 -3.66265 -0.761636 0
M  V30 3270 H 305.793 -4.81487 -1.02134 0
M  V30 3271 N 307.445 0.0818655 -1.57387 0
M  V30 3272 C 308.392 1.09834 -2.0299 0
M  V30 3273 C 309.362 1.39043 -0.908639 0
M  V30 3274 O 310.547 1.50282 -1.17559 0
M  V30 3275 C 307.687 2.40971 -2.47037 0
M  V30 3276 C 306.8 2.18379 -3.7274 0
M  V30 3277 C 305.935 3.43008 -4.0561 0
M  V30 3278 C 304.974 3.15736 -5.24383 0
M  V30 3279 N 304.111 4.32667 -5.52941 0
M  V30 3280 H 308.951 0.702472 -2.89602 0
M  V30 3281 H 306.488 0.33531 -1.43227 0
M  V30 3282 H 308.446 3.1752 -2.70623 0
M  V30 3283 H 307.076 2.78379 -1.63417 0
M  V30 3284 H 306.128 1.32569 -3.56552 0
M  V30 3285 H 307.44 1.94227 -4.59431 0
M  V30 3286 H 306.594 4.27958 -4.30043 0
M  V30 3287 H 305.333 3.70225 -3.17466 0
M  V30 3288 H 304.338 2.2918 -4.99757 0
M  V30 3289 H 305.563 2.8985 -6.14136 0
M  V30 3290 H 303.509 4.59935 -4.67756 0
M  V30 3291 H 303.426 4.11753 -6.34031 0
M  V30 3292 H 304.694 5.18644 -5.81918 0
M  V30 3293 N 308.923 1.53595 0.353017 0
M  V30 3294 C 309.87 1.80919 1.43308 0
M  V30 3295 C 310.84 0.654288 1.5267 0
M  V30 3296 O 312.025 0.897759 1.6836 0
M  V30 3297 C 309.165 2.01605 2.80089 0
M  V30 3298 C 308.278 3.29321 2.79593 0
M  V30 3299 C 307.413 3.40125 4.0803 0
M  V30 3300 C 306.452 4.61826 4.01725 0
M  V30 3301 N 305.589 4.69716 5.21834 0
M  V30 3302 H 310.429 2.73074 1.19308 0
M  V30 3303 H 307.966 1.35263 0.578131 0
M  V30 3304 H 309.924 2.11586 3.59565 0
M  V30 3305 H 308.554 1.12772 3.0246 0
M  V30 3306 H 307.606 3.28229 1.92276 0
M  V30 3307 H 308.918 4.18884 2.70809 0
M  V30 3308 H 308.072 3.49488 4.95927 0
M  V30 3309 H 306.811 2.48601 4.19582 0
M  V30 3310 H 305.816 4.52552 3.12213 0
M  V30 3311 H 307.041 5.54705 3.91764 0
M  V30 3312 H 304.987 3.81097 5.33948 0
M  V30 3313 H 304.904 5.53202 5.1527 0
M  V30 3314 H 306.172 4.83376 6.11529 0
M  V30 3315 N 310.401 -0.613514 1.45168 0
M  V30 3316 C 311.626 -1.40437 1.52618 0
M  V30 3317 C 312.051 -1.87438 0.157707 0
M  V30 3318 O 311.409 -1.59791 -0.856537 0
M  V30 3319 C 311.457 -2.58894 2.51011 0
M  V30 3320 O 310.561 -3.59326 2.02382 0
M  V30 3321 H 309.902 -0.419506 0.514695 0
M  V30 3322 H 312.432 -0.747215 1.90467 0
M  V30 3323 H 312.442 -3.06214 2.69624 0
M  V30 3324 H 311.117 -2.24032 3.50403 0
M  V30 3325 H 309.694 -3.18695 1.93618 0
M  V30 3326 N 311.879 -1.3236 -0.855495 0
M  V30 3327 C 313.29 -1.2056 -1.42556 0
M  V30 3328 C 313.641 0.182209 -1.95352 0
M  V30 3329 O 312.766 1.08088 -1.87472 0
M  V30 3330 C 313.361 -2.1826 -2.59129 0
M  V30 3331 C 311.92 -2.10351 -3.12137 0
M  V30 3332 C 311.067 -2.06674 -1.84882 0
M  V30 3333 H 314.018 -1.442 -0.662727 0
M  V30 3334 H 314.039 -1.78064 -3.36264 0
M  V30 3335 H 313.551 -3.19257 -2.20673 0
M  V30 3336 H 311.652 -1.12599 -3.55179 0
M  V30 3337 H 311.765 -3.00135 -3.73438 0
M  V30 3338 H 310.129 -1.51901 -2.04446 0
M  V30 3339 H 310.912 -3.09451 -1.48643 0
M  V30 3340 N 313.357 1.07166 -1.15556 0
M  V30 3341 C 314.287 2.16403 -0.877046 0
M  V30 3342 C 315.268 1.69217 0.173111 0
M  V30 3343 O 316.453 1.94181 0.027084 0
M  V30 3344 C 313.583 3.45349 -0.367632 0
M  V30 3345 C 312.537 4.05995 -1.35468 0
M  V30 3346 C 311.863 5.30045 -0.704038 0
M  V30 3347 C 313.163 4.45804 -2.72132 0
M  V30 3348 H 314.857 2.39959 -1.79053 0
M  V30 3349 H 312.403 1.15325 -0.862331 0
M  V30 3350 H 314.356 4.21095 -0.160317 0
M  V30 3351 H 313.08 3.21385 0.581326 0
M  V30 3352 H 311.739 3.32296 -1.54839 0
M  V30 3353 H 311.387 5.02373 0.251128 0
M  V30 3354 H 311.087 5.71579 -1.36277 0
M  V30 3355 H 312.611 6.08495 -0.50654 0
M  V30 3356 H 314.025 5.12671 -2.56595 0
M  V30 3357 H 312.422 4.98296 -3.34397 0
M  V30 3358 H 313.492 3.57083 -3.28054 0
M  V30 3359 N 314.835 0.952656 1.25548 0
M  V30 3360 C 316.06 0.623025 1.97821 0
M  V30 3361 C 316.485 -0.7976 1.70352 0
M  V30 3362 O 315.843 -1.53905 0.958283 0
M  V30 3363 C 315.891 0.885532 3.49558 0
M  V30 3364 O 314.995 -0.0366641 4.12384 0
M  V30 3365 H 314.336 0.237082 0.620232 0
M  V30 3366 H 316.866 1.27871 1.59719 0
M  V30 3367 H 316.876 0.811009 3.99858 0
M  V30 3368 H 315.551 1.92094 3.6888 0
M  V30 3369 H 314.128 0.0898954 3.72792 0
M  V30 3370 N 316.313 -1.40141 0.720998 0
M  V30 3371 C 317.559 -2.01572 0.272075 0
M  V30 3372 C 317.914 -1.5616 -1.12391 0
M  V30 3373 O 317.207 -0.774198 -1.75262 0
M  V30 3374 C 317.401 -3.56165 0.296892 0
M  V30 3375 C 317.23 -4.16584 1.69375 0
M  V30 3376 C 316 -4.49783 2.30269 0
M  V30 3377 C 318.198 -4.41076 2.64493 0
M  V30 3378 N 316.18 -4.95626 3.62254 0
M  V30 3379 C 317.551 -4.88971 3.81192 0
M  V30 3380 C 319.606 -4.23122 2.62435 0
M  V30 3381 C 318.309 -5.20796 4.96149 0
M  V30 3382 C 320.335 -4.56052 3.76524 0
M  V30 3383 C 319.697 -5.04141 4.91956 0
M  V30 3384 H 315.796 -0.768343 0.145511 0
M  V30 3385 H 318.38 -1.70287 0.943959 0
M  V30 3386 H 316.551 -3.86868 -0.344578 0
M  V30 3387 H 318.283 -4.04346 -0.169254 0
M  V30 3388 H 315.038 -4.37101 1.82318 0
M  V30 3389 H 315.462 -5.22923 4.29977 0
M  V30 3390 H 320.104 -3.85158 1.74393 0
M  V30 3391 H 317.822 -5.57672 5.84831 0
M  V30 3392 H 321.408 -4.43796 3.76213 0
M  V30 3393 H 320.288 -5.29142 5.78774 0
M  V30 3394 N 317.792 -0.46758 -1.50504 0
M  V30 3395 C 319.041 0.0902868 -2.01498 0
M  V30 3396 C 319.354 1.411 -1.35463 0
M  V30 3397 O 320.56 2.0536 -1.77594 0
M  V30 3398 C 319.016 0.21142 -3.59278 0
M  V30 3399 C 318.624 -1.10065 -4.34269 0
M  V30 3400 C 320.368 0.721433 -4.18325 0
M  V30 3401 C 318.275 -0.943505 -5.83825 0
M  V30 3402 H 317.205 0.037517 -0.753066 0
M  V30 3403 H 319.856 -0.601943 -1.73346 0
M  V30 3404 H 318.238 0.967352 -3.84003 0
M  V30 3405 H 319.412 -1.86726 -4.21272 0
M  V30 3406 H 317.727 -1.5415 -3.86816 0
M  V30 3407 H 320.324 0.85598 -5.27804 0
M  V30 3408 H 320.667 1.71186 -3.79475 0
M  V30 3409 H 321.2 0.0229843 -3.97793 0
M  V30 3410 H 317.939 -1.90719 -6.27141 0
M  V30 3411 H 317.459 -0.217213 -5.99407 0
M  V30 3412 H 319.138 -0.608715 -6.4413 0
M  V30 3413 N 319.27 1.56325 -0.20005 0
M  V30 3414 C 320.18 2.22931 0.730668 0
M  V30 3415 C 321.196 1.22997 1.23076 0
M  V30 3416 O 322.372 1.55748 1.27689 0
M  V30 3417 C 319.437 2.87948 1.93098 0
M  V30 3418 C 318.498 4.03166 1.47497 0
M  V30 3419 C 317.731 4.65073 2.61807 0
M  V30 3420 O 317.954 4.25913 3.79413 0
M  V30 3421 O 316.888 5.54452 2.34237 0
M  V30 3422 H 320.714 3.03084 0.193391 0
M  V30 3423 H 318.299 1.49371 0.0294621 0
M  V30 3424 H 320.181 3.29063 2.6324 0
M  V30 3425 H 318.856 2.10771 2.45677 0
M  V30 3426 H 317.763 3.66664 0.742201 0
M  V30 3427 H 319.096 4.82022 0.995796 0
M  V30 3428 N 320.748 -0.0735177 1.57428 0
M  V30 3429 C 321.658 -1.10547 2.06922 0
M  V30 3430 C 322.674 -1.42506 0.998402 0
M  V30 3431 O 323.85 -1.52717 1.31299 0
M  V30 3432 C 320.915 -2.40019 2.50184 0
M  V30 3433 C 319.976 -2.15046 3.71556 0
M  V30 3434 C 319.209 -3.38345 4.12745 0
M  V30 3435 O 319.432 -4.47399 3.53822 0
M  V30 3436 O 318.366 -3.2666 5.05546 0
M  V30 3437 H 322.192 -0.715013 2.95163 0
M  V30 3438 H 319.777 -0.287531 1.46607 0
M  V30 3439 H 321.659 -3.16218 2.78539 0
M  V30 3440 H 320.334 -2.78447 1.65072 0
M  V30 3441 H 319.241 -1.36558 3.48285 0
M  V30 3442 H 320.574 -1.81499 4.57514 0
M  V30 3443 N 322.226 -1.5378 -0.344866 0
M  V30 3444 C 323.173 -1.81676 -1.42346 0
M  V30 3445 C 324.143 -0.662376 -1.52321 0
M  V30 3446 O 325.328 -0.906675 -1.67881 0
M  V30 3447 C 322.468 -2.03087 -2.79015 0
M  V30 3448 C 321.581 -3.30799 -2.77842 0
M  V30 3449 C 320.716 -3.42285 -4.0622 0
M  V30 3450 C 319.755 -4.6395 -3.9927 0
M  V30 3451 N 318.892 -4.72477 -5.19336 0
M  V30 3452 H 323.732 -2.73703 -1.17858 0
M  V30 3453 H 321.269 -1.35568 -0.570949 0
M  V30 3454 H 323.227 -2.1349 -3.58438 0
M  V30 3455 H 321.857 -1.14375 -3.01858 0
M  V30 3456 H 320.909 -3.29244 -1.90533 0
M  V30 3457 H 322.221 -4.20314 -2.68584 0
M  V30 3458 H 321.375 -3.52113 -4.94066 0
M  V30 3459 H 320.114 -2.50823 -4.18258 0
M  V30 3460 H 319.119 -4.54201 -3.09809 0
M  V30 3461 H 320.344 -5.56775 -3.88817 0
M  V30 3462 H 318.29 -3.83924 -5.3192 0
M  V30 3463 H 318.207 -5.55927 -5.12329 0
M  V30 3464 H 319.475 -4.86613 -6.08957 0
M  V30 3465 N 323.704 0.605807 -1.45491 0
M  V30 3466 C 324.952 1.36207 -1.49305 0
M  V30 3467 C 325.273 1.94519 -0.136863 0
M  V30 3468 O 324.543 1.77261 0.833983 0
M  V30 3469 H 323.123 0.50565 -0.549843 0
M  V30 3470 H 325.785 0.711239 -1.81459 0
M  V30 3471 H 324.881 2.18058 -2.23287 0
M  V30 3472 N 325.182 1.32811 0.848464 0
M  V30 3473 C 326.593 1.21315 1.41914 0
M  V30 3474 C 326.944 -0.171847 1.95446 0
M  V30 3475 O 326.069 -1.07093 1.88043 0
M  V30 3476 C 326.664 2.19631 2.57968 0
M  V30 3477 C 325.223 2.12003 3.11017 0
M  V30 3478 C 324.37 2.07651 1.83783 0
M  V30 3479 H 327.321 1.44549 0.655071 0
M  V30 3480 H 327.342 1.79845 3.35315 0
M  V30 3481 H 326.854 3.20423 2.18976 0
M  V30 3482 H 324.955 1.14481 3.54577 0
M  V30 3483 H 325.068 3.02111 3.71841 0
M  V30 3484 H 323.432 1.52983 2.03638 0
M  V30 3485 H 324.215 3.10235 1.47 0
M  V30 3486 N 326.66 -1.06551 1.16123 0
M  V30 3487 C 327.908 -1.78947 0.939267 0
M  V30 3488 C 328.229 -1.87532 -0.534476 0
M  V30 3489 O 327.499 -1.38211 -1.38833 0
M  V30 3490 H 326.079 -0.662807 0.344523 0
M  V30 3491 H 328.741 -1.28725 1.46342 0
M  V30 3492 H 327.837 -2.81117 1.35572 0
M  V30 3493 N 328.138 -0.959301 -1.25041 0
M  V30 3494 C 329.068 -0.501388 -2.28053 0
M  V30 3495 C 330.049 0.454673 -1.63911 0
M  V30 3496 O 331.234 0.352618 -1.90972 0
M  V30 3497 C 328.364 0.217224 -3.4662 0
M  V30 3498 C 327.318 -0.654034 -4.22973 0
M  V30 3499 C 326.644 0.195589 -5.34342 0
M  V30 3500 C 327.944 -1.93447 -4.85155 0
M  V30 3501 H 329.638 -1.36238 -2.66608 0
M  V30 3502 H 327.184 -0.656534 -1.28163 0
M  V30 3503 H 329.137 0.548732 -4.17812 0
M  V30 3504 H 327.861 1.1125 -3.07068 0
M  V30 3505 H 326.52 -0.968693 -3.5357 0
M  V30 3506 H 326.168 1.09076 -4.91031 0
M  V30 3507 H 325.868 -0.384091 -5.86343 0
M  V30 3508 H 327.392 0.521958 -6.08365 0
M  V30 3509 H 328.806 -1.66908 -5.48466 0
M  V30 3510 H 327.203 -2.46018 -5.47353 0
M  V30 3511 H 328.273 -2.63466 -4.07079 0
M  V30 3512 N 329.616 1.39756 -0.72842 0
M  V30 3513 C 330.563 2.30647 -0.0841519 0
M  V30 3514 C 331.533 1.48869 0.7367 0
M  V30 3515 O 332.718 1.77574 0.698015 0
M  V30 3516 C 329.858 3.35165 0.822091 0
M  V30 3517 C 328.971 4.31999 -0.0106663 0
M  V30 3518 C 328.106 5.23585 0.896241 0
M  V30 3519 C 327.145 6.12072 0.0583381 0
M  V30 3520 N 326.282 6.96035 0.920818 0
M  V30 3521 H 331.122 2.85173 -0.864891 0
M  V30 3522 H 328.659 1.40422 -0.438179 0
M  V30 3523 H 330.617 3.94345 1.36189 0
M  V30 3524 H 329.247 2.8211 1.56888 0
M  V30 3525 H 328.299 3.74492 -0.66781 0
M  V30 3526 H 329.611 4.9443 -0.658825 0
M  V30 3527 H 328.765 5.87759 1.50412 0
M  V30 3528 H 327.504 4.61459 1.57819 0
M  V30 3529 H 326.509 5.46916 -0.562389 0
M  V30 3530 H 327.734 6.76261 -0.6203 0
M  V30 3531 H 325.68 6.36485 1.58818 0
M  V30 3532 H 325.597 7.55284 0.32899 0
M  V30 3533 H 326.865 7.64646 1.51447 0
M  V30 3534 N 331.094 0.475555 1.50254 0
M  V30 3535 C 332.51 0.12997 1.5907 0
M  V30 3536 C 332.71 -1.36385 1.48328 0
M  V30 3537 O 331.766 -2.13754 1.34407 0
M  V30 3538 C 333.079 0.684139 2.92814 0
M  V30 3539 C 334.627 0.647965 3.0622 0
M  V30 3540 C 335.102 1.17975 4.42545 0
M  V30 3541 N 336.593 1.13936 4.48969 0
M  V30 3542 C 337.328 1.52129 5.52851 0
M  V30 3543 N 336.824 1.97793 6.63965 0
M  V30 3544 N 338.617 1.43704 5.4342 0
M  V30 3545 H 330.768 1.44706 1.55479 0
M  V30 3546 H 333.031 0.598691 0.735033 0
M  V30 3547 H 332.737 1.73079 3.06164 0
M  V30 3548 H 332.611 0.130204 3.76975 0
M  V30 3549 H 334.998 -0.38979 2.92514 0
M  V30 3550 H 335.079 1.23876 2.23805 0
M  V30 3551 H 334.723 2.21616 4.57 0
M  V30 3552 H 334.653 0.565138 5.23559 0
M  V30 3553 H 337.144 0.804488 3.69238 0
M  V30 3554 H 337.457 2.25072 7.39299 0
M  V30 3555 H 335.802 2.01749 6.65073 0
M  V30 3556 H 338.993 1.07867 4.55502 0
M  V30 3557 H 339.166 1.73794 6.24259 0
M  V30 3558 N 332.573 -1.56217 0.208337 0
M  V30 3559 C 333.521 -2.21053 -0.723769 0
M  V30 3560 C 334.515 -1.18578 -1.20978 0
M  V30 3561 O 335.721 -1.36691 -1.17114 0
M  V30 3562 H 332.096 -0.708595 -0.251788 0
M  V30 3563 H 334.067 -2.98006 -0.153365 0
M  V30 3564 C 332.816 -2.89417 -1.927 0
M  V30 3565 H 332.139 -3.68019 -1.56212 0
M  V30 3566 H 333.579 -3.38201 -2.55727 0
M  V30 3567 C 332.038 -1.91166 -2.77411 0
M  V30 3568 O 332.568 -1.42026 -3.75754 0
M  V30 3569 N 330.774 -1.59105 -2.43175 0
M  V30 3570 H 330.321 -1.99259 -1.63259 0
M  V30 3571 H 330.279 -0.936255 -3.00136 0
M  V30 3572 N 334.051 0.0651679 -1.57465 0
M  V30 3573 C 335.467 0.420105 -1.53972 0
M  V30 3574 C 335.667 1.78782 -0.929474 0
M  V30 3575 O 334.723 2.46771 -0.534839 0
M  V30 3576 C 336.036 0.355084 -2.98596 0
M  V30 3577 C 337.584 0.434792 -3.09965 0
M  V30 3578 C 338.059 0.399609 -4.56253 0
M  V30 3579 N 339.55 0.459488 -4.60915 0
M  V30 3580 C 340.285 0.454584 -5.71595 0
M  V30 3581 N 339.781 0.404102 -6.9162 0
M  V30 3582 N 341.574 0.501635 -5.59857 0
M  V30 3583 H 333.725 -0.830328 -1.95498 0
M  V30 3584 H 335.988 -0.312244 -0.895102 0
M  V30 3585 H 335.694 -0.583357 -3.46828 0
M  V30 3586 H 335.568 1.16275 -3.58831 0
M  V30 3587 H 337.955 1.36366 -2.61703 0
M  V30 3588 H 338.036 -0.40157 -2.52628 0
M  V30 3589 H 337.68 -0.525436 -5.05175 0
M  V30 3590 H 337.61 1.25359 -5.11461 0
M  V30 3591 H 340.101 0.502482 -3.74544 0
M  V30 3592 H 340.414 0.404468 -7.71741 0
M  V30 3593 H 338.759 0.37069 -6.94011 0
M  V30 3594 H 341.95 0.538812 -4.64989 0
M  V30 3595 H 342.123 0.494345 -6.46112 0
M  V30 3596 N 335.529 1.53961 0.336706 0
M  V30 3597 C 336.759 1.75229 1.09446 0
M  V30 3598 C 337.167 0.494602 1.82621 0
M  V30 3599 O 336.51 -0.543764 1.75468 0
M  V30 3600 C 336.572 2.88288 2.1478 0
M  V30 3601 C 336.236 4.27656 1.6112 0
M  V30 3602 C 337.233 5.08981 1.0599 0
M  V30 3603 C 334.918 4.74161 1.6576 0
M  V30 3604 C 336.912 6.34916 0.562129 0
M  V30 3605 C 334.599 6.00067 1.15595 0
M  V30 3606 C 335.597 6.80278 0.609147 0
M  V30 3607 O 335.285 8.03818 0.114999 0
M  V30 3608 H 335.017 0.588881 0.331956 0
M  V30 3609 H 337.571 2.01614 0.392566 0
M  V30 3610 H 335.801 2.57443 2.88548 0
M  V30 3611 H 337.49 2.97461 2.76174 0
M  V30 3612 H 338.256 4.74213 1.01722 0
M  V30 3613 H 334.135 4.11781 2.07261 0
M  V30 3614 H 337.679 6.9747 0.134668 0
M  V30 3615 H 333.576 6.3433 1.19566 0
M  V30 3616 H 334.344 8.18172 0.231651 0
M  V30 3617 N 337.007 -0.598083 1.45811 0
M  V30 3618 C 337.937 -1.71873 1.58057 0
M  V30 3619 C 338.918 -1.64533 0.431615 0
M  V30 3620 O 340.103 -1.82787 0.65595 0
M  V30 3621 C 337.233 -3.10495 1.55597 0
M  V30 3622 C 336.187 -3.32654 2.69305 0
M  V30 3623 C 335.513 -4.71646 2.51902 0
M  V30 3624 C 336.813 -3.21981 4.11248 0
M  V30 3625 H 338.507 -1.61881 2.51863 0
M  V30 3626 H 336.053 -0.777372 1.21214 0
M  V30 3627 H 338.006 -3.88699 1.6276 0
M  V30 3628 H 336.73 -3.2135 0.583255 0
M  V30 3629 H 335.389 -2.56843 2.61586 0
M  V30 3630 H 335.037 -4.79246 1.52748 0
M  V30 3631 H 334.737 -4.87426 3.2816 0
M  V30 3632 H 336.261 -5.52038 2.60933 0
M  V30 3633 H 337.675 -3.90049 4.20161 0
M  V30 3634 H 336.072 -3.49289 4.87972 0
M  V30 3635 H 337.142 -2.1928 4.32486 0
M  V30 3636 N 338.485 -1.33259 -0.841409 0
M  V30 3637 C 339.71 -1.2775 -1.63385 0
M  V30 3638 C 340.135 0.149188 -1.87507 0
M  V30 3639 O 339.493 1.10498 -1.43736 0
M  V30 3640 C 339.541 -2.05571 -2.96265 0
M  V30 3641 O 338.645 -1.41257 -3.87453 0
M  V30 3642 H 337.986 -0.439627 -0.497618 0
M  V30 3643 H 340.516 -1.75782 -1.04699 0
M  V30 3644 H 340.526 -2.16241 -3.45982 0
M  V30 3645 H 339.201 -3.09309 -2.7803 0
M  V30 3646 H 337.778 -1.39217 -3.45938 0
M  V30 3647 N 339.963 1.05934 -1.16686 0
M  V30 3648 C 341.21 1.788 -0.950622 0
M  V30 3649 C 341.538 1.87384 0.521305 0
M  V30 3650 O 340.793 1.36438 1.40297 0
M  V30 3651 C 341.092 3.23105 -1.52767 0
M  V30 3652 C 340.758 3.34594 -3.02254 0
M  V30 3653 C 339.42 3.37437 -3.43059 0
M  V30 3654 C 341.772 3.36219 -3.98254 0
M  V30 3655 C 339.1 3.39525 -4.78477 0
M  V30 3656 C 341.452 3.39845 -5.33562 0
M  V30 3657 C 340.116 3.40971 -5.73842 0
M  V30 3658 H 339.386 0.654275 -0.347857 0
M  V30 3659 H 342.033 1.24555 -1.45459 0
M  V30 3660 H 340.338 3.80227 -0.94524 0
M  V30 3661 H 342.035 3.7809 -1.336 0
M  V30 3662 H 338.625 3.3309 -2.6972 0
M  V30 3663 H 342.809 3.33231 -3.67792 0
M  V30 3664 H 338.065 3.38703 -5.09009 0
M  V30 3665 H 342.239 3.4005 -6.07733 0
M  V30 3666 H 339.866 3.42342 -6.78753 0
M  V30 3667 N 341.441 0.965919 1.2453 0
M  V30 3668 C 342.391 0.465731 2.23193 0
M  V30 3669 C 343.375 -0.451277 1.54442 0
M  V30 3670 O 344.567 -0.282489 1.74731 0
M  V30 3671 C 341.696 -0.244511 3.42428 0
M  V30 3672 C 340.782 0.691222 4.18429 0
M  V30 3673 N 341.173 1.82771 4.71623 0
M  V30 3674 C 339.471 0.501649 4.4317 0
M  V30 3675 C 340.172 2.41285 5.29298 0
M  V30 3676 N 339.148 1.69819 5.16394 0
M  V30 3677 H 342.95 1.33291 2.61937 0
M  V30 3678 H 340.464 0.824789 1.39896 0
M  V30 3679 H 342.461 -0.620056 4.12263 0
M  V30 3680 H 341.121 -1.10815 3.05205 0
M  V30 3681 H 342.132 2.20929 4.68413 0
M  V30 3682 H 338.809 -0.318177 4.16286 0
M  V30 3683 H 340.199 3.37181 5.8117 0
M  V30 3684 N 342.919 -1.39368 0.735821 0
M  V30 3685 C 344.166 -2.00497 0.284123 0
M  V30 3686 C 344.494 -1.58387 -1.12889 0
M  V30 3687 O 343.749 -0.804359 -1.78406 0
M  V30 3688 C 344.048 -3.5583 0.334651 0
M  V30 3689 C 343.714 -4.17593 1.7008 0
M  V30 3690 C 342.376 -4.34176 2.07472 0
M  V30 3691 C 344.728 -4.51848 2.59775 0
M  V30 3692 C 342.056 -4.82304 3.34065 0
M  V30 3693 C 344.408 -5.01384 3.85741 0
M  V30 3694 C 343.072 -5.16175 4.23225 0
M  V30 3695 H 342.342 -0.73367 0.103968 0
M  V30 3696 H 344.989 -1.66683 0.942825 0
M  V30 3697 H 343.294 -3.89674 -0.407625 0
M  V30 3698 H 344.991 -4.00986 -0.0329927 0
M  V30 3699 H 341.581 -4.05087 1.40008 0
M  V30 3700 H 345.765 -4.38653 2.32157 0
M  V30 3701 H 341.021 -4.91941 3.63049 0
M  V30 3702 H 345.195 -5.26863 4.55399 0
M  V30 3703 H 342.822 -5.5323 5.21384 0
M  V30 3704 N 344.397 -0.483516 -1.5 0
M  V30 3705 C 345.344 0.304164 -2.28787 0
M  V30 3706 C 346.314 0.976114 -1.34392 0
M  V30 3707 O 347.499 0.986156 -1.63339 0
M  V30 3708 C 344.639 1.37298 -3.16612 0
M  V30 3709 C 343.752 0.714561 -4.26049 0
M  V30 3710 C 342.887 1.76232 -5.01114 0
M  V30 3711 C 341.926 1.08483 -6.0241 0
M  V30 3712 N 341.063 2.076 -6.70706 0
M  V30 3713 H 345.903 -0.373981 -2.95644 0
M  V30 3714 H 343.44 -0.196275 -1.45785 0
M  V30 3715 H 345.398 2.00445 -3.65893 0
M  V30 3716 H 344.028 2.02012 -2.51776 0
M  V30 3717 H 343.08 -0.0297798 -3.80388 0
M  V30 3718 H 344.392 0.180383 -4.98474 0
M  V30 3719 H 343.546 2.46929 -5.54176 0
M  V30 3720 H 342.285 2.33033 -4.28424 0
M  V30 3721 H 341.29 0.363545 -5.48597 0
M  V30 3722 H 342.515 0.523551 -6.77079 0
M  V30 3723 H 340.461 2.63394 -6.00799 0
M  V30 3724 H 340.378 1.59201 -7.39047 0
M  V30 3725 H 341.646 2.77639 -7.2838 0
M  V30 3726 N 345.875 1.56104 -0.216619 0
M  V30 3727 C 347.1 2.0301 0.424462 0
M  V30 3728 C 347.525 1.0955 1.52907 0
M  V30 3729 O 346.883 0.0827914 1.81111 0
M  V30 3730 C 346.931 3.4819 0.937883 0
M  V30 3731 O 346.035 3.57865 2.04955 0
M  V30 3732 H 345.376 0.656925 0.0966755 0
M  V30 3733 H 347.906 2.01859 -0.33381 0
M  V30 3734 H 347.916 3.88413 1.24897 0
M  V30 3735 H 346.591 4.15699 0.129387 0
M  V30 3736 H 345.168 3.29527 1.74546 0
M  V30 3737 N 347.353 -0.0568162 1.57498 0
M  V30 3738 C 348.601 -0.751617 1.87604 0
M  V30 3739 C 348.922 -1.77351 0.81066 0
M  V30 3740 O 348.192 -1.95254 -0.159018 0
M  V30 3741 H 346.772 -0.280583 0.692302 0
M  V30 3742 H 349.434 -0.0293483 1.94878 0
M  V30 3743 H 348.53 -1.25852 2.856 0
M  V30 3744 N 348.832 -1.54138 -0.328536 0
M  V30 3745 C 350.057 -1.76378 -1.09112 0
M  V30 3746 C 350.482 -0.508596 -1.81094 0
M  V30 3747 O 349.84 0.539598 -1.73084 0
M  V30 3748 C 349.888 -2.95358 -2.06872 0
M  V30 3749 O 348.992 -2.66556 -3.14677 0
M  V30 3750 H 348.333 -0.584614 -0.314838 0
M  V30 3751 H 350.863 -2.01146 -0.374348 0
M  V30 3752 H 350.873 -3.22566 -2.4983 0
M  V30 3753 H 349.548 -3.86385 -1.5388 0
M  V30 3754 H 348.125 -2.50282 -2.7643 0
M  V30 3755 N 350.31 0.590341 -1.46126 0
M  V30 3756 C 351.24 1.71032 -1.58966 0
M  V30 3757 C 352.221 1.64302 -0.440335 0
M  V30 3758 O 353.406 1.82436 -0.665634 0
M  V30 3759 C 350.536 3.09665 -1.57241 0
M  V30 3760 C 349.49 3.31221 -2.71066 0
M  V30 3761 C 348.816 4.70303 -2.54399 0
M  V30 3762 C 350.116 3.19796 -4.1295 0
M  V30 3763 H 351.81 1.60543 -2.52718 0
M  V30 3764 H 349.356 0.770933 -1.21625 0
M  V30 3765 H 351.309 3.87831 -1.64819 0
M  V30 3766 H 350.033 3.21036 -0.600289 0
M  V30 3767 H 348.692 2.55452 -2.62944 0
M  V30 3768 H 348.34 4.78429 -1.55288 0
M  V30 3769 H 348.04 4.85679 -3.30741 0
M  V30 3770 H 349.564 5.50647 -2.63857 0
M  V30 3771 H 350.978 3.87815 -4.22223 0
M  V30 3772 H 349.375 3.46696 -4.89818 0
M  V30 3773 H 350.445 2.16983 -4.33643 0
M  V30 3774 N 351.788 1.33704 0.83433 0
M  V30 3775 C 352.698 1.26382 1.97648 0
M  V30 3776 C 353.714 0.173548 1.73132 0
M  V30 3777 O 354.89 0.397962 1.97429 0
M  V30 3778 C 351.955 1.00769 3.31733 0
M  V30 3779 C 351.016 2.1884 3.69334 0
M  V30 3780 C 350.249 1.9444 4.9702 0
M  V30 3781 O 350.472 0.896961 5.63303 0
M  V30 3782 O 349.406 2.81093 5.32231 0
M  V30 3783 H 353.232 2.22444 2.06767 0
M  V30 3784 H 350.817 1.13795 0.968037 0
M  V30 3785 H 352.699 0.882186 4.12062 0
M  V30 3786 H 351.374 0.0773783 3.23608 0
M  V30 3787 H 350.281 2.36946 2.89495 0
M  V30 3788 H 351.614 3.10221 3.82131 0
M  V30 3789 N 353.266 -1.05314 1.17247 0
M  V30 3790 C 354.214 -2.15137 0.884238 0
M  V30 3791 C 355.208 -1.68729 -0.15063 0
M  V30 3792 O 356.414 -1.8 -0.00366673 0
M  V30 3793 H 352.789 -0.702471 0.2684 0
M  V30 3794 H 354.76 -2.36652 1.81764 0
M  V30 3795 C 353.509 -3.45243 0.412659 0
M  V30 3796 H 352.832 -3.81352 1.20043 0
M  V30 3797 H 354.272 -4.23263 0.249858 0
M  V30 3798 C 352.731 -3.25487 -0.86948 0
M  V30 3799 O 353.261 -3.51938 -1.93655 0
M  V30 3800 N 351.467 -2.78875 -0.817147 0
M  V30 3801 H 351.014 -2.57549 0.0514211 0
M  V30 3802 H 350.972 -2.66036 -1.67547 0
M  V30 3803 N 354.744 -0.972509 -1.24016 0
M  V30 3804 C 355.99 -0.637978 -1.92504 0
M  V30 3805 C 356.323 0.825383 -1.75787 0
M  V30 3806 O 355.598 1.59442 -1.11393 0
M  V30 3807 C 355.881 -1.01942 -3.45369 0
M  V30 3808 C 355.734 -2.53983 -3.71231 0
M  V30 3809 C 357.053 -0.55751 -4.36555 0
M  V30 3810 H 354.172 -0.233248 -0.699117 0
M  V30 3811 H 356.814 -1.21238 -1.46292 0
M  V30 3812 H 354.964 -0.530656 -3.84859 0
M  V30 3813 H 356.636 -3.10374 -3.41271 0
M  V30 3814 H 354.879 -2.96968 -3.16216 0
M  V30 3815 H 355.55 -2.75723 -4.78206 0
M  V30 3816 H 358.026 -0.977029 -4.04467 0
M  V30 3817 H 356.902 -0.85292 -5.42233 0
M  V30 3818 H 357.163 0.542328 -4.38761 0
M  V30 3819 N 356.222 1.38976 -0.743202 0
M  V30 3820 C 357.633 1.83123 -0.363732 0
M  V30 3821 C 357.984 1.6205 1.10609 0
M  V30 3822 O 357.109 1.11606 1.854 0
M  V30 3823 C 357.704 3.32439 -0.653408 0
M  V30 3824 C 356.263 3.74974 -0.327338 0
M  V30 3825 C 355.41 2.61878 -0.911875 0
M  V30 3826 H 358.361 1.27852 -0.940191 0
M  V30 3827 H 358.382 3.80432 0.0720031 0
M  V30 3828 H 357.894 3.47745 -1.72323 0
M  V30 3829 H 355.995 3.65252 0.736314 0
M  V30 3830 H 356.108 4.72106 -0.815631 0
M  V30 3831 H 354.472 2.52448 -0.337944 0
M  V30 3832 H 355.255 2.79987 -1.98651 0
M  V30 3833 N 357.7 0.491464 1.49741 0
M  V30 3834 C 358.648 -0.305837 2.30581 0
M  V30 3835 C 359.642 -0.971642 1.38764 0
M  V30 3836 O 360.848 -0.90042 1.5586 0
M  V30 3837 H 357.223 -0.117482 0.742767 0
M  V30 3838 H 359.194 0.396093 2.95759 0
M  V30 3839 C 357.943 -1.36319 3.19863 0
M  V30 3840 H 357.266 -0.860258 3.90435 0
M  V30 3841 H 358.706 -1.89323 3.79385 0
M  V30 3842 C 357.165 -2.37621 2.38826 0
M  V30 3843 O 357.695 -3.43311 2.08567 0
M  V30 3844 N 355.901 -2.09849 2.01026 0
M  V30 3845 H 355.448 -1.23922 2.25834 0
M  V30 3846 H 355.406 -2.77859 1.47112 0
M  V30 3847 N 359.178 -1.55987 0.224894 0
M  V30 3848 C 360.424 -1.98684 -0.406502 0
M  V30 3849 C 360.757 -1.11248 -1.59177 0
M  V30 3850 O 360.032 -0.170909 -1.93748 0
M  V30 3851 C 360.315 -3.50218 -0.837808 0
M  V30 3852 C 360.168 -4.48426 0.351332 0
M  V30 3853 C 361.487 -4.06243 -1.69278 0
M  V30 3854 H 358.606 -0.722337 -0.146283 0
M  V30 3855 H 361.248 -1.87255 0.321799 0
M  V30 3856 H 359.398 -3.60089 -1.45837 0
M  V30 3857 H 361.07 -4.50562 0.989526 0
M  V30 3858 H 359.313 -4.22159 0.998207 0
M  V30 3859 H 359.984 -5.52 0.00655905 0
M  V30 3860 H 362.46 -3.99337 -1.16914 0
M  V30 3861 H 361.336 -5.12581 -1.96346 0
M  V30 3862 H 361.597 -3.53332 -2.65723 0
M  V30 3863 N 360.656 0.0484629 -1.57525 0
M  V30 3864 C 361.904 0.741657 -1.88 0
M  V30 3865 C 362.225 1.76918 -0.820054 0
M  V30 3866 O 361.495 1.95335 0.148661 0
M  V30 3867 H 360.075 0.276908 -0.69378 0
M  V30 3868 H 362.737 0.019013 -1.94891 0
M  V30 3869 H 361.833 1.24336 -2.86264 0
M  V30 3870 N 362.134 1.5431 0.320358 0
M  V30 3871 C 363.38 1.72924 1.05949 0
M  V30 3872 C 363.713 0.503185 1.87568 0
M  V30 3873 O 362.988 -0.499839 1.87968 0
M  V30 3874 C 363.271 3.00676 1.98156 0
M  V30 3875 C 363.124 4.3354 1.19845 0
M  V30 3876 C 364.443 3.24198 2.9763 0
M  V30 3877 H 361.562 0.629195 0.383774 0
M  V30 3878 H 364.204 1.87008 0.335854 0
M  V30 3879 H 362.354 2.888 2.59859 0
M  V30 3880 H 364.026 4.57305 0.605773 0
M  V30 3881 H 362.269 4.309 0.500784 0
M  V30 3882 H 362.94 5.19156 1.87567 0
M  V30 3883 H 365.416 3.35557 2.4605 0
M  V30 3884 H 364.292 4.14938 3.59329 0
M  V30 3885 H 364.553 2.41577 3.7026 0
M  V30 3886 N 363.613 -0.582584 1.46437 0
M  V30 3887 C 364.561 -1.71272 1.5738 0
M  V30 3888 C 365.555 -1.63524 0.44229 0
M  V30 3889 O 366.761 -1.69016 0.619166 0
M  V30 3890 H 363.136 -0.566273 0.494813 0
M  V30 3891 H 365.107 -1.59174 2.52401 0
M  V30 3892 C 363.856 -3.09658 1.58136 0
M  V30 3893 H 363.179 -3.16291 2.44541 0
M  V30 3894 H 364.619 -3.88494 1.69847 0
M  V30 3895 C 363.078 -3.3547 0.310026 0
M  V30 3896 O 363.608 -3.97199 -0.599683 0
M  V30 3897 N 361.814 -2.89925 0.197901 0
M  V30 3898 H 361.361 -2.39873 0.93909 0
M  V30 3899 H 361.319 -3.07568 -0.65185 0
M  V30 3900 N 365.091 -1.34144 -0.827227 0
M  V30 3901 C 366.038 -1.25364 -1.93785 0
M  V30 3902 C 367.008 -0.129774 -1.65592 0
M  V30 3903 O 368.193 -0.310024 -1.88264 0
M  V30 3904 C 365.333 -1.01064 -3.2997 0
M  V30 3905 C 364.446 -2.22185 -3.70484 0
M  V30 3906 C 363.581 -1.91203 -4.95595 0
M  V30 3907 C 362.62 -3.08491 -5.28677 0
M  V30 3908 N 361.757 -2.77421 -6.44967 0
M  V30 3909 H 366.597 -2.20347 -2.00627 0
M  V30 3910 H 364.134 -1.09558 -0.981608 0
M  V30 3911 H 366.092 -0.850139 -4.08446 0
M  V30 3912 H 364.722 -0.0975026 -3.22653 0
M  V30 3913 H 363.774 -2.4917 -2.87434 0
M  V30 3914 H 365.086 -3.0983 -3.90905 0
M  V30 3915 H 364.24 -1.71864 -5.81848 0
M  V30 3916 H 362.979 -1.00812 -4.77167 0
M  V30 3917 H 361.984 -3.28431 -4.40923 0
M  V30 3918 H 363.209 -3.99655 -5.49047 0
M  V30 3919 H 361.155 -1.89601 -6.28003 0
M  V30 3920 H 361.072 -3.58598 -6.6554 0
M  V30 3921 H 362.34 -2.61577 -7.34301 0
M  V30 3922 N 366.569 1.04691 -1.17803 0
M  V30 3923 C 367.517 2.14665 -0.895635 0
M  V30 3924 C 368.511 1.68806 0.141679 0
M  V30 3925 O 369.717 1.79999 -0.00587914 0
M  V30 3926 H 366.092 0.701038 -0.272121 0
M  V30 3927 H 368.063 2.35685 -1.83017 0
M  V30 3928 C 366.812 3.45019 -0.430962 0
M  V30 3929 H 366.135 3.8071 -1.22064 0
M  V30 3930 H 367.575 4.23125 -0.272301 0
M  V30 3931 C 366.034 3.25943 0.852207 0
M  V30 3932 O 366.564 3.5296 1.91786 0
M  V30 3933 N 364.77 2.79304 0.802346 0
M  V30 3934 H 364.317 2.57518 -0.0650788 0
M  V30 3935 H 364.275 2.66921 1.66134 0
M  V30 3936 N 368.047 0.979072 1.23499 0
M  V30 3937 C 369.296 0.642751 1.91185 0
M  V30 3938 C 369.609 -0.827253 1.77245 0
M  V30 3939 O 370.815 -1.27458 2.39722 0
M  V30 3940 C 369.271 1.09901 3.42709 0
M  V30 3941 C 368.879 2.59327 3.65313 0
M  V30 3942 C 370.623 0.836371 4.16179 0
M  V30 3943 C 368.53 2.98627 5.10467 0
M  V30 3944 H 367.46 0.236698 0.715884 0
M  V30 3945 H 370.111 1.1868 1.39955 0
M  V30 3946 H 368.493 0.48319 3.93041 0
M  V30 3947 H 369.667 3.26136 3.25533 0
M  V30 3948 H 367.982 2.83323 3.05151 0
M  V30 3949 H 370.579 1.10586 5.23139 0
M  V30 3950 H 370.922 -0.227509 4.15678 0
M  V30 3951 H 371.455 1.41371 3.71832 0
M  V30 3952 H 368.194 4.04133 5.16098 0
M  V30 3953 H 367.714 2.3651 5.51201 0
M  V30 3954 H 369.393 2.89159 5.78788 0
M  V30 3955 N 369.525 -1.3858 0.750561 0
M  V30 3956 C 370.772 -2.00184 0.305373 0
M  V30 3957 C 371.1 -1.59575 -1.11203 0
M  V30 3958 O 370.355 -0.823236 -1.77542 0
M  V30 3959 C 370.654 -3.55455 0.372373 0
M  V30 3960 C 370.32 -4.15765 1.745 0
M  V30 3961 C 368.982 -4.31951 2.12065 0
M  V30 3962 C 371.334 -4.49067 2.64553 0
M  V30 3963 C 368.662 -4.78734 3.39162 0
M  V30 3964 C 371.014 -4.97265 3.91038 0
M  V30 3965 C 369.678 -5.11658 4.28676 0
M  V30 3966 H 368.948 -0.732526 0.111744 0
M  V30 3967 H 371.595 -1.65673 0.960451 0
M  V30 3968 H 369.9 -3.90084 -0.366272 0
M  V30 3969 H 371.597 -4.00999 0.00953918 0
M  V30 3970 H 368.187 -4.03579 1.44297 0
M  V30 3971 H 372.371 -4.36166 2.36796 0
M  V30 3972 H 367.627 -4.88062 3.68246 0
M  V30 3973 H 371.801 -5.22003 4.60962 0
M  V30 3974 H 369.428 -5.47668 5.27222 0
M  V30 3975 N 371.003 -0.499398 -1.49478 0
M  V30 3976 C 371.933 0.269244 -2.31943 0
M  V30 3977 C 372.914 0.964054 -1.40143 0
M  V30 3978 O 374.099 0.955767 -1.69052 0
M  V30 3979 C 371.229 1.33504 -3.20615 0
M  V30 3980 C 370.183 0.760202 -4.21195 0
M  V30 3981 C 369.509 1.9264 -4.98792 0
M  V30 3982 C 370.809 -0.247661 -5.21712 0
M  V30 3983 H 372.503 -0.419082 -2.96452 0
M  V30 3984 H 370.049 -0.202988 -1.42562 0
M  V30 3985 H 372.002 1.88048 -3.77115 0
M  V30 3986 H 370.726 2.05253 -2.54045 0
M  V30 3987 H 369.385 0.23653 -3.65836 0
M  V30 3988 H 369.033 2.63154 -4.28671 0
M  V30 3989 H 368.733 1.54785 -5.66847 0
M  V30 3990 H 370.257 2.4762 -5.58137 0
M  V30 3991 H 371.671 0.209579 -5.72917 0
M  V30 3992 H 370.068 -0.541962 -5.97648 0
M  V30 3993 H 371.138 -1.16409 -4.7072 0
M  V30 3994 N 372.481 1.55866 -0.233164 0
M  V30 3995 C 373.428 2.20796 0.67215 0
M  V30 3996 C 374.398 1.16731 1.18166 0
M  V30 3997 O 375.583 1.45129 1.23864 0
M  V30 3998 C 372.723 2.90072 1.86955 0
M  V30 3999 C 371.836 4.08759 1.39786 0
M  V30 4000 C 370.971 4.65787 2.55374 0
M  V30 4001 C 370.01 5.76752 2.04998 0
M  V30 4002 N 369.147 6.28021 3.13901 0
M  V30 4003 H 373.987 2.9779 0.111749 0
M  V30 4004 H 371.524 1.47036 0.0434007 0
M  V30 4005 H 373.482 3.28428 2.57276 0
M  V30 4006 H 372.112 2.15575 2.40265 0
M  V30 4007 H 371.164 3.7581 0.589173 0
M  V30 4008 H 372.476 4.88906 0.98856 0
M  V30 4009 H 371.63 5.06646 3.33758 0
M  V30 4010 H 370.369 3.84828 2.99598 0
M  V30 4011 H 369.374 5.35383 1.25079 0
M  V30 4012 H 370.599 6.59553 1.61759 0
M  V30 4013 H 368.545 5.49971 3.57586 0
M  V30 4014 H 368.462 7.03323 2.7726 0
M  V30 4015 H 369.73 6.73538 3.92386 0
M  V30 4016 N 373.959 -0.0401083 1.57549 0
M  V30 4017 C 375.236 -0.767917 1.79896 0
M  V30 4018 C 375.616 -1.9416 0.82856 0
M  V30 4019 O 374.964 -2.2812 -0.131671 0
M  V30 4020 C 375.174 -1.2113 3.27305 0
M  V30 4021 C 376.522 -1.63175 3.91994 0
M  V30 4022 O 377.546 -1.30616 3.31388 0
M  V30 4023 O 376.405 -2.23565 4.98679 0
M  V30 4024 H 373.499 -0.370441 0.739393 0
M  V30 4025 H 376.045 -0.017737 1.69691 0
M  V30 4026 H 374.817 -0.372937 3.89519 0
M  V30 4027 H 374.44 -2.02183 3.42356 0
M  V30 4028 N 375.437 -1.54477 -0.31217 0
M  V30 4029 C 376.369 -1.81011 -1.40598 0
M  V30 4030 C 377.382 -0.692546 -1.47335 0
M  V30 4031 O 378.571 -0.969847 -1.49854 0
M  V30 4032 C 375.671 -1.92307 -2.79054 0
M  V30 4033 C 374.844 -3.22594 -2.95384 0
M  V30 4034 C 373.903 -3.24448 -4.1427 0
M  V30 4035 O 372.929 -3.98035 -4.06887 0
M  V30 4036 N 374.131 -2.49042 -5.24365 0
M  V30 4037 H 376.896 -2.75408 -1.18196 0
M  V30 4038 H 374.457 -1.53914 -0.502202 0
M  V30 4039 H 376.449 -1.90962 -3.56813 0
M  V30 4040 H 375.019 -1.04955 -2.94454 0
M  V30 4041 H 374.239 -3.36806 -2.04831 0
M  V30 4042 H 375.527 -4.08593 -3.03198 0
M  V30 4043 H 374.925 -1.88867 -5.33241 0
M  V30 4044 H 373.482 -2.53463 -6.005 0
M  V30 4045 N 376.915 0.57481 -1.46744 0
M  V30 4046 C 377.863 1.70435 -1.58286 0
M  V30 4047 C 378.857 1.63287 -0.450956 0
M  V30 4048 O 380.063 1.68685 -0.628121 0
M  V30 4049 H 376.438 0.56364 -0.497809 0
M  V30 4050 H 378.409 1.57833 -2.53242 0
M  V30 4051 C 377.158 3.08815 -1.59776 0
M  V30 4052 H 376.481 3.1499 -2.46214 0
M  V30 4053 H 377.921 3.87588 -1.71905 0
M  V30 4054 C 376.38 3.35301 -0.327812 0
M  V30 4055 O 376.91 3.97511 0.57861 0
M  V30 4056 N 375.116 2.89816 -0.213274 0
M  V30 4057 H 374.663 2.39371 -0.951798 0
M  V30 4058 H 374.621 3.0791 0.63553 0
M  V30 4059 N 378.394 1.34581 0.820102 0
M  V30 4060 C 379.643 1.26437 1.57151 0
M  V30 4061 C 379.956 -0.163111 1.94919 0
M  V30 4062 O 381.162 -0.366722 2.69012 0
M  V30 4063 C 379.618 2.21658 2.83541 0
M  V30 4064 C 379.226 3.69679 2.53065 0
M  V30 4065 C 380.97 2.22428 3.61561 0
M  V30 4066 C 378.877 4.56761 3.75664 0
M  V30 4067 H 377.807 0.469707 0.589823 0
M  V30 4068 H 380.458 1.59763 0.902656 0
M  V30 4069 H 378.84 1.81287 3.52067 0
M  V30 4070 H 380.014 4.18605 1.92631 0
M  V30 4071 H 378.329 3.71384 1.88316 0
M  V30 4072 H 380.926 2.8471 4.52597 0
M  V30 4073 H 381.269 1.22434 3.97889 0
M  V30 4074 H 381.802 2.61259 2.99981 0
M  V30 4075 H 378.541 5.57702 3.44454 0
M  V30 4076 H 378.061 4.12568 4.35371 0
M  V30 4077 H 379.74 4.71509 4.43044 0
M  V30 4078 N 379.872 -1.04064 1.18357 0
M  V30 4079 C 381.119 -1.77265 0.978947 0
M  V30 4080 C 381.447 -1.88189 -0.491428 0
M  V30 4081 O 380.702 -1.38653 -1.38108 0
M  V30 4082 C 381.001 -3.20634 1.57888 0
M  V30 4083 C 380.667 -3.29743 3.07539 0
M  V30 4084 C 379.329 -3.31937 3.48384 0
M  V30 4085 C 381.681 -3.29841 4.03552 0
M  V30 4086 C 379.009 -3.3187 4.83818 0
M  V30 4087 C 381.361 -3.31313 5.38901 0
M  V30 4088 C 380.025 -3.31799 5.79194 0
M  V30 4089 H 379.295 -0.648659 0.358222 0
M  V30 4090 H 381.942 -1.22225 1.47422 0
M  V30 4091 H 380.247 -3.78675 1.00561 0
M  V30 4092 H 381.944 -3.75917 1.39598 0
M  V30 4093 H 378.534 -3.28757 2.74986 0
M  V30 4094 H 382.718 -3.27337 3.73047 0
M  V30 4095 H 377.974 -3.30562 5.14333 0
M  V30 4096 H 382.148 -3.30338 6.13066 0
M  V30 4097 H 379.775 -3.315 6.84114 0
M  V30 4098 N 381.35 -0.985608 -1.22978 0
M  V30 4099 C 382.596 -0.65836 -1.91816 0
M  V30 4100 C 382.929 0.806692 -1.76653 0
M  V30 4101 O 382.204 1.58252 -1.13078 0
M  V30 4102 C 382.487 -1.056 -3.44268 0
M  V30 4103 C 382.34 -2.57906 -3.68516 0
M  V30 4104 C 383.659 -0.603781 -4.35939 0
M  V30 4105 H 380.778 -0.24065 -0.696604 0
M  V30 4106 H 383.42 -1.22783 -1.44998 0
M  V30 4107 H 381.57 -0.571445 -3.84274 0
M  V30 4108 H 383.242 -3.13976 -3.3796 0
M  V30 4109 H 381.485 -3.00305 -3.13048 0
M  V30 4110 H 382.156 -2.80779 -4.75255 0
M  V30 4111 H 384.632 -1.01987 -4.03408 0
M  V30 4112 H 383.508 -0.910383 -5.41298 0
M  V30 4113 H 383.769 0.495761 -4.39312 0
M  V30 4114 N 382.828 1.3818 -0.7579 0
M  V30 4115 C 383.76 2.2901 -0.0932177 0
M  V30 4116 C 384.773 1.47958 0.679136 0
M  V30 4117 O 385.962 1.70773 0.519514 0
M  V30 4118 C 383.062 3.26953 0.89192 0
M  V30 4119 C 382.235 4.37045 0.176303 0
M  V30 4120 C 381.294 5.15148 1.07281 0
M  V30 4121 O 380.32 5.66616 0.541728 0
M  V30 4122 N 381.522 5.28542 2.40049 0
M  V30 4123 H 384.287 2.86694 -0.873303 0
M  V30 4124 H 381.848 1.50007 -0.609054 0
M  V30 4125 H 383.84 3.76083 1.49479 0
M  V30 4126 H 382.41 2.70136 1.57306 0
M  V30 4127 H 381.63 3.89493 -0.607328 0
M  V30 4128 H 382.918 5.07801 -0.318718 0
M  V30 4129 H 382.316 4.88285 2.85647 0
M  V30 4130 H 380.873 5.8103 2.95376 0
M  V30 4131 N 384.306 0.507319 1.49211 0
M  V30 4132 C 385.253 -0.267728 2.29242 0
M  V30 4133 C 386.223 -0.954609 1.35928 0
M  V30 4134 O 387.408 -0.960046 1.64887 0
M  V30 4135 C 384.548 -1.32243 3.18756 0
M  V30 4136 C 383.661 -0.64669 4.27132 0
M  V30 4137 C 382.796 -1.68238 5.03855 0
M  V30 4138 C 381.835 -0.98885 6.0406 0
M  V30 4139 N 380.972 -1.96903 6.73924 0
M  V30 4140 H 385.812 0.420968 2.95012 0
M  V30 4141 H 383.349 0.219443 1.45454 0
M  V30 4142 H 385.307 -1.94599 3.69036 0
M  V30 4143 H 383.937 -1.97981 2.54958 0
M  V30 4144 H 382.989 0.0902926 3.80293 0
M  V30 4145 H 384.301 -0.101058 4.98698 0
M  V30 4146 H 383.455 -2.38081 5.58034 0
M  V30 4147 H 382.194 -2.26187 4.32077 0
M  V30 4148 H 381.199 -0.276222 5.49106 0
M  V30 4149 H 382.424 -0.415767 6.77826 0
M  V30 4150 H 380.37 -2.53803 6.04913 0
M  V30 4151 H 380.287 -1.47423 7.41487 0
M  V30 4152 H 381.555 -2.66015 7.32705 0
M  V30 4153 N 385.784 -1.5574 0.241426 0
M  V30 4154 C 386.714 -2.24133 -0.654722 0
M  V30 4155 C 387.695 -1.21974 -1.1856 0
M  V30 4156 O 388.88 -1.50612 -1.22595 0
M  V30 4157 C 386.01 -2.93659 -1.85423 0
M  V30 4158 C 384.964 -4.0246 -1.45636 0
M  V30 4159 C 384.29 -4.59383 -2.73626 0
M  V30 4160 C 385.59 -5.18468 -0.631506 0
M  V30 4161 H 387.284 -2.99281 -0.0844353 0
M  V30 4162 H 384.83 -1.43947 -0.0391707 0
M  V30 4163 H 386.783 -3.40203 -2.48676 0
M  V30 4164 H 385.507 -2.15991 -2.44981 0
M  V30 4165 H 384.166 -3.56676 -0.847202 0
M  V30 4166 H 383.814 -3.78422 -3.3137 0
M  V30 4167 H 383.514 -5.32826 -2.4773 0
M  V30 4168 H 385.038 -5.08658 -3.37786 0
M  V30 4169 H 386.452 -5.61272 -1.1682 0
M  V30 4170 H 384.849 -5.98266 -0.468831 0
M  V30 4171 H 385.919 -4.8358 0.357506 0
M  V30 4172 N 387.262 0.0317525 -1.57568 0
M  V30 4173 C 388.192 1.03274 -2.0942 0
M  V30 4174 C 389.173 1.3788 -0.996143 0
M  V30 4175 O 390.358 1.46811 -1.27122 0
M  V30 4176 C 387.488 2.33448 -2.57137 0
M  V30 4177 C 386.442 2.13091 -3.71182 0
M  V30 4178 C 385.768 3.49001 -4.05095 0
M  V30 4179 C 387.068 1.51928 -4.99715 0
M  V30 4180 H 388.762 0.60112 -2.93303 0
M  V30 4181 H 386.308 0.287705 -1.41097 0
M  V30 4182 H 388.261 3.03802 -2.92032 0
M  V30 4183 H 386.985 2.78665 -1.70333 0
M  V30 4184 H 385.644 1.45171 -3.36632 0
M  V30 4185 H 385.292 3.91862 -3.15362 0
M  V30 4186 H 384.992 3.36207 -4.81911 0
M  V30 4187 H 386.516 4.20721 -4.42522 0
M  V30 4188 H 387.93 2.12196 -5.32584 0
M  V30 4189 H 386.327 1.49716 -5.81124 0
M  V30 4190 H 387.397 0.484811 -4.8247 0
M  V30 4191 N 388.74 1.54641 0.303973 0
M  V30 4192 C 389.988 1.73437 1.0375 0
M  V30 4193 C 390.309 0.521449 1.87899 0
M  V30 4194 O 389.579 -0.46432 1.90318 0
M  V30 4195 H 388.159 0.639518 0.386039 0
M  V30 4196 H 390.821 1.91988 0.335675 0
M  V30 4197 H 389.917 2.62235 1.69231 0
M  V30 4198 N 390.218 -0.567019 1.47046 0
M  V30 4199 C 391.15 -1.68985 1.54844 0
M  V30 4200 C 392.163 -1.56869 0.435431 0
M  V30 4201 O 393.352 -1.64006 0.70457 0
M  V30 4202 C 390.452 -3.07373 1.42742 0
M  V30 4203 C 389.625 -3.45339 2.6844 0
M  V30 4204 C 388.684 -4.62849 2.50314 0
M  V30 4205 O 387.71 -4.67922 3.24095 0
M  V30 4206 N 388.912 -5.58726 1.57499 0
M  V30 4207 H 391.677 -1.62745 2.51663 0
M  V30 4208 H 389.238 -0.753411 1.43302 0
M  V30 4209 H 391.23 -3.83803 1.28365 0
M  V30 4210 H 389.8 -3.07893 0.540445 0
M  V30 4211 H 389.02 -2.58455 2.97648 0
M  V30 4212 H 390.308 -3.67476 3.51907 0
M  V30 4213 H 389.706 -5.57376 0.966876 0
M  V30 4214 H 388.263 -6.34523 1.49078 0
M  V30 4215 N 391.696 -1.35014 -0.812953 0
M  V30 4216 C 392.943 -1.27931 -1.56971 0
M  V30 4217 C 393.271 0.148034 -1.93936 0
M  V30 4218 O 392.526 1.11175 -1.61054 0
M  V30 4219 C 392.825 -2.12524 -2.87347 0
M  V30 4220 C 392.491 -3.61401 -2.6963 0
M  V30 4221 C 391.153 -4.01983 -2.64506 0
M  V30 4222 C 393.505 -4.55894 -2.52607 0
M  V30 4223 C 390.833 -5.35235 -2.40293 0
M  V30 4224 C 393.185 -5.89336 -2.29925 0
M  V30 4225 C 391.849 -6.2907 -2.23219 0
M  V30 4226 H 391.119 -0.468131 -0.574399 0
M  V30 4227 H 393.766 -1.66851 -0.939836 0
M  V30 4228 H 392.071 -1.66463 -3.54679 0
M  V30 4229 H 393.768 -2.04383 -3.45005 0
M  V30 4230 H 390.358 -3.29193 -2.74463 0
M  V30 4231 H 394.542 -4.25431 -2.55583 0
M  V30 4232 H 389.798 -5.65028 -2.33566 0
M  V30 4233 H 393.972 -6.62139 -2.15743 0
M  V30 4234 H 391.599 -7.32256 -2.04219 0
M  V30 4235 N 393.175 1.03435 -1.18907 0
M  V30 4236 C 394.4 1.80919 -1.01406 0
M  V30 4237 C 394.825 1.83055 0.432721 0
M  V30 4238 O 394.183 1.25252 1.31079 0
M  V30 4239 C 394.231 3.24091 -1.58105 0
M  V30 4240 O 393.335 4.04434 -0.806669 0
M  V30 4241 H 392.676 0.558709 -0.358803 0
M  V30 4242 H 395.206 1.30223 -1.57807 0
M  V30 4243 H 395.216 3.74853 -1.61087 0
M  V30 4244 H 393.891 3.21851 -2.6341 0
M  V30 4245 H 392.468 3.63091 -0.849666 0
M  V30 4246 N 394.653 0.992116 1.22453 0
M  V30 4247 C 395.563 0.55065 2.28046 0
M  V30 4248 C 396.579 -0.400189 1.69335 0
M  V30 4249 O 397.755 -0.267215 1.99619 0
M  V30 4250 C 394.82 -0.128496 3.46462 0
M  V30 4251 C 393.881 0.865208 4.20491 0
M  V30 4252 C 393.114 0.218377 5.33253 0
M  V30 4253 O 393.337 -0.987894 5.6178 0
M  V30 4254 O 392.271 0.922845 5.94783 0
M  V30 4255 H 396.097 1.4291 2.67975 0
M  V30 4256 H 393.682 0.760326 1.28606 0
M  V30 4257 H 395.564 -0.508947 4.18315 0
M  V30 4258 H 394.239 -0.981526 3.0846 0
M  V30 4259 H 393.146 1.29658 3.50913 0
M  V30 4260 H 394.479 1.68741 4.62371 0
M  V30 4261 N 396.131 -1.37776 0.765217 0
M  V30 4262 C 397.078 -2.30342 0.145274 0
M  V30 4263 C 398.048 -1.5077 -0.696971 0
M  V30 4264 O 399.233 -1.79362 -0.650689 0
M  V30 4265 C 396.373 -3.37227 -0.732939 0
M  V30 4266 C 395.486 -4.31819 0.125199 0
M  V30 4267 C 394.621 -5.25777 -0.757107 0
M  V30 4268 C 393.66 -6.12012 0.103963 0
M  V30 4269 N 392.797 -6.98232 -0.735953 0
M  V30 4270 H 397.637 -2.8278 0.940195 0
M  V30 4271 H 395.174 -1.39211 0.475255 0
M  V30 4272 H 397.132 -3.97818 -1.25686 0
M  V30 4273 H 395.762 -2.86171 -1.49353 0
M  V30 4274 H 394.814 -3.7259 0.766865 0
M  V30 4275 H 396.126 -4.92509 0.789683 0
M  V30 4276 H 395.28 -5.91541 -1.34776 0
M  V30 4277 H 394.019 -4.65481 -1.45529 0
M  V30 4278 H 393.024 -5.45233 0.707197 0
M  V30 4279 H 394.249 -6.74379 0.799381 0
M  V30 4280 H 392.195 -6.40472 -1.41887 0
M  V30 4281 H 392.112 -7.55891 -0.128624 0
M  V30 4282 H 393.38 -7.68393 -1.31121 0
M  V30 4283 N 397.609 -0.515225 -1.4894 0
M  V30 4284 C 398.519 0.259774 -2.33157 0
M  V30 4285 C 399.535 0.953501 -1.45548 0
M  V30 4286 O 400.711 0.931735 -1.78552 0
M  V30 4287 C 397.776 1.30193 -3.21326 0
M  V30 4288 C 396.837 0.620129 -4.24797 0
M  V30 4289 C 396.07 1.61263 -5.08753 0
M  V30 4290 O 396.293 2.84389 -4.94448 0
M  V30 4291 O 395.227 1.16013 -5.90614 0
M  V30 4292 H 399.053 -0.429932 -3.00641 0
M  V30 4293 H 396.638 -0.276346 -1.46822 0
M  V30 4294 H 398.52 1.90455 -3.75905 0
M  V30 4295 H 397.195 1.97431 -2.56521 0
M  V30 4296 H 396.102 -0.0226019 -3.74093 0
M  V30 4297 H 397.435 -0.0100493 -4.92199 0
M  V30 4298 N 399.087 1.5561 -0.249682 0
M  V30 4299 C 400.017 2.24477 0.642826 0
M  V30 4300 C 400.998 1.22601 1.17911 0
M  V30 4301 O 402.183 1.5126 1.21795 0
M  V30 4302 C 399.313 2.94638 1.83863 0
M  V30 4303 C 398.267 4.03227 1.435 0
M  V30 4304 C 397.593 4.60828 2.71186 0
M  V30 4305 C 398.893 5.18796 0.604002 0
M  V30 4306 H 400.587 2.99321 0.0685625 0
M  V30 4307 H 398.133 1.43965 0.0315363 0
M  V30 4308 H 400.086 3.41517 2.46868 0
M  V30 4309 H 398.81 2.17287 2.43832 0
M  V30 4310 H 397.469 3.57121 0.828275 0
M  V30 4311 H 397.117 3.80174 3.29358 0
M  V30 4312 H 396.817 5.34132 2.44901 0
M  V30 4313 H 398.341 5.10442 3.35084 0
M  V30 4314 H 399.755 5.61883 1.13842 0
M  V30 4315 H 398.152 5.98506 0.437097 0
M  V30 4316 H 399.222 4.83384 -0.383147 0
M  V30 4317 N 400.565 -0.0233959 1.57583 0
M  V30 4318 C 401.528 -1.00693 2.05897 0
M  V30 4319 C 402.528 -1.28693 0.964092 0
M  V30 4320 O 403.718 -1.23602 1.22753 0
M  V30 4321 C 400.85 -2.33825 2.4807 0
M  V30 4322 H 402.043 -0.589476 2.9405 0
M  V30 4323 H 399.596 -0.270354 1.53944 0
M  V30 4324 H 400.331 -2.80307 1.6309 0
M  V30 4325 H 400.116 -2.1483 3.2801 0
M  V30 4326 H 401.606 -3.04426 2.85857 0
M  V30 4327 N 402.043 -1.548 -0.295768 0
M  V30 4328 C 403.006 -1.85363 -1.34808 0
M  V30 4329 C 404.006 -0.726817 -1.43436 0
M  V30 4330 O 405.196 -0.995088 -1.42981 0
M  V30 4331 C 402.328 -2.03859 -2.73229 0
M  V30 4332 H 403.521 -2.7941 -1.08949 0
M  V30 4333 H 401.074 -1.46942 -0.532702 0
M  V30 4334 H 401.809 -1.12117 -3.04303 0
M  V30 4335 H 401.594 -2.8588 -2.68356 0
M  V30 4336 H 403.084 -2.28857 -3.49305 0
M  V30 4337 N 403.521 0.559213 -1.47345 0
M  V30 4338 C 404.431 1.69388 -1.62311 0
M  V30 4339 C 405.447 1.6648 -0.505993 0
M  V30 4340 O 406.623 1.85964 -0.773262 0
M  V30 4341 C 403.688 3.05894 -1.63185 0
M  V30 4342 C 402.749 3.19885 -2.86307 0
M  V30 4343 C 401.982 4.49879 -2.87131 0
M  V30 4344 O 402.205 5.35217 -1.97229 0
M  V30 4345 O 401.139 4.67618 -3.78968 0
M  V30 4346 H 404.965 1.59706 -2.58317 0
M  V30 4347 H 402.55 0.728989 -1.30407 0
M  V30 4348 H 404.432 3.87133 -1.66451 0
M  V30 4349 H 403.107 3.15964 -0.70345 0
M  V30 4350 H 402.014 2.38052 -2.88587 0
M  V30 4351 H 403.347 3.14718 -3.78435 0
M  V30 4352 N 404.999 1.35443 0.805782 0
M  V30 4353 C 405.946 1.28431 1.91766 0
M  V30 4354 C 406.916 0.156102 1.65365 0
M  V30 4355 O 408.101 0.339936 1.87747 0
M  V30 4356 C 405.241 1.06301 3.2832 0
M  V30 4357 C 404.354 2.2805 3.66902 0
M  V30 4358 C 403.489 1.99064 4.92491 0
M  V30 4359 C 402.528 3.16863 5.23703 0
M  V30 4360 N 401.665 2.87647 6.40471 0
M  V30 4361 H 406.505 2.23511 1.97096 0
M  V30 4362 H 404.042 1.11105 0.964054 0
M  V30 4363 H 406 0.915012 4.07042 0
M  V30 4364 H 404.63 0.148822 3.22457 0
M  V30 4365 H 403.682 2.53711 2.83434 0
M  V30 4366 H 404.994 3.1601 3.85927 0
M  V30 4367 H 404.148 1.81099 5.7904 0
M  V30 4368 H 402.887 1.0839 4.75503 0
M  V30 4369 H 401.892 3.35404 4.35642 0
M  V30 4370 H 403.117 4.08339 5.4262 0
M  V30 4371 H 401.063 1.99568 6.24907 0
M  V30 4372 H 400.98 3.69141 6.59751 0
M  V30 4373 H 402.248 2.73226 7.30047 0
M  V30 4374 N 406.477 -1.02803 1.19454 0
M  V30 4375 C 407.424 -2.11099 0.933046 0
M  V30 4376 C 408.394 -1.65571 -0.132447 0
M  V30 4377 O 409.579 -1.90797 0.00987576 0
M  V30 4378 C 406.719 -3.41763 0.478747 0
M  V30 4379 C 405.832 -4.00833 1.6111 0
M  V30 4380 C 404.967 -5.19511 1.10825 0
M  V30 4381 C 404.006 -5.70639 2.21445 0
M  V30 4382 N 403.143 -6.80589 1.72461 0
M  V30 4383 H 407.983 -2.32804 1.86028 0
M  V30 4384 H 405.52 -1.14179 0.927441 0
M  V30 4385 H 407.478 -4.16736 0.196745 0
M  V30 4386 H 406.108 -3.20166 -0.411493 0
M  V30 4387 H 405.16 -3.23066 2.00829 0
M  V30 4388 H 406.472 -4.34794 2.4445 0
M  V30 4389 H 405.626 -6.01645 0.781533 0
M  V30 4390 H 404.365 -4.87086 0.244606 0
M  V30 4391 H 403.37 -4.87116 2.54947 0
M  V30 4392 H 404.595 -6.05102 3.08267 0
M  V30 4393 H 402.541 -6.50016 0.884056 0
M  V30 4394 H 402.458 -7.13681 2.49389 0
M  V30 4395 H 403.726 -7.66317 1.42755 0
M  V30 4396 N 407.956 -0.998596 -1.21925 0
M  V30 4397 C 409.372 -0.710303 -1.42923 0
M  V30 4398 C 409.572 0.716933 -1.88314 0
M  V30 4399 O 408.628 1.48712 -2.04062 0
M  V30 4400 C 409.941 -1.72072 -2.466 0
M  V30 4401 C 411.489 -1.73681 -2.60392 0
M  V30 4402 C 411.964 -2.73601 -3.67296 0
M  V30 4403 N 413.455 -2.7223 -3.7476 0
M  V30 4404 C 414.19 -3.46206 -4.57087 0
M  V30 4405 N 413.686 -4.29802 -5.43362 0
M  V30 4406 N 415.479 -3.34886 -4.51451 0
M  V30 4407 H 407.63 -1.92028 -0.9077 0
M  V30 4408 H 409.893 -0.828487 -0.460775 0
M  V30 4409 H 409.599 -2.74231 -2.20206 0
M  V30 4410 H 409.473 -1.51818 -3.45299 0
M  V30 4411 H 411.86 -0.722173 -2.86127 0
M  V30 4412 H 411.941 -1.98005 -1.61949 0
M  V30 4413 H 411.585 -3.75217 -3.42307 0
M  V30 4414 H 411.515 -2.46545 -4.65321 0
M  V30 4415 H 414.006 -2.11576 -3.1312 0
M  V30 4416 H 414.319 -4.83061 -6.03218 0
M  V30 4417 H 412.664 -4.33887 -5.42925 0
M  V30 4418 H 415.855 -2.69015 -3.83078 0
M  V30 4419 H 416.028 -3.92796 -5.15379 0
M  V30 4420 N 409.434 1.37368 -0.772513 0
M  V30 4421 C 410.683 1.98918 -0.333861 0
M  V30 4422 C 410.996 1.62017 1.09589 0
M  V30 4423 O 412.202 2.16676 1.63596 0
M  V30 4424 C 410.658 3.55735 -0.545971 0
M  V30 4425 C 410.266 4.01573 -1.98603 0
M  V30 4426 C 412.01 4.24156 -0.170979 0
M  V30 4427 C 409.917 5.51102 -2.1457 0
M  V30 4428 H 408.847 0.744214 -0.121085 0
M  V30 4429 H 411.498 1.56888 -0.95175 0
M  V30 4430 H 409.88 3.95748 0.141387 0
M  V30 4431 H 411.054 3.72803 -2.7084 0
M  V30 4432 H 409.369 3.45937 -2.31769 0
M  V30 4433 H 411.966 5.34024 -0.26878 0
M  V30 4434 H 412.309 4.06917 0.878855 0
M  V30 4435 H 412.842 3.89447 -0.810914 0
M  V30 4436 H 409.581 5.73268 -3.17875 0
M  V30 4437 H 409.101 5.81554 -1.46817 0
M  V30 4438 H 410.78 6.17083 -1.94468 0
M  V30 4439 N 410.912 0.523116 1.48665 0
M  V30 4440 C 411.842 -0.23231 2.32342 0
M  V30 4441 C 412.823 -0.941637 1.41659 0
M  V30 4442 O 414.008 -0.928751 1.70552 0
M  V30 4443 C 411.138 -1.28387 3.22698 0
M  V30 4444 C 410.092 -0.693098 4.22351 0
M  V30 4445 C 409.418 -1.8468 5.01794 0
M  V30 4446 C 410.718 0.33063 5.21252 0
M  V30 4447 H 412.412 0.466192 2.95748 0
M  V30 4448 H 409.958 0.225643 1.42221 0
M  V30 4449 H 411.911 -1.82024 3.80059 0
M  V30 4450 H 410.635 -2.01186 2.57278 0
M  V30 4451 H 409.294 -0.178299 3.66166 0
M  V30 4452 H 408.942 -2.56301 4.32804 0
M  V30 4453 H 408.642 -1.45747 5.69238 0
M  V30 4454 H 410.166 -2.38709 5.62006 0
M  V30 4455 H 411.58 -0.118407 5.73178 0
M  V30 4456 H 409.977 0.636974 5.9671 0
M  V30 4457 H 411.047 1.23883 4.68808 0
M  V30 4458 N 412.39 -1.55475 0.257931 0
M  V30 4459 C 413.34 -2.18506 -0.651094 0
M  V30 4460 C 414.324 -1.14431 -1.13112 0
M  V30 4461 O 415.516 -1.40305 -1.07905 0
M  V30 4462 C 412.645 -2.89653 -1.84272 0
M  V30 4463 C 411.731 -4.00996 -1.38068 0
M  V30 4464 N 412.122 -5.01816 -0.633609 0
M  V30 4465 C 410.42 -4.13753 -1.66506 0
M  V30 4466 C 411.121 -5.80371 -0.392922 0
M  V30 4467 N 410.097 -5.3505 -0.960359 0
M  V30 4468 H 413.899 -2.93811 -0.0722883 0
M  V30 4469 H 411.413 -1.62286 0.0607256 0
M  V30 4470 H 413.41 -3.33245 -2.50506 0
M  V30 4471 H 412.07 -2.15854 -2.42564 0
M  V30 4472 H 413.081 -5.17128 -0.282626 0
M  V30 4473 H 409.758 -3.51133 -2.25858 0
M  V30 4474 H 411.148 -6.7159 0.204235 0
M  V30 4475 N 413.868 0.0150385 -1.57593 0
M  V30 4476 C 415.108 0.70768 -1.91758 0
M  V30 4477 C 415.472 1.71764 -0.857974 0
M  V30 4478 O 416.673 2.45956 -1.0844 0
M  V30 4479 C 414.944 1.34736 -3.3103 0
M  V30 4480 S 416.503 2.06721 -3.87056 0
M  V30 4481 H 413.321 0.234119 -0.671349 0
M  V30 4482 H 415.923 -0.0380373 -1.95463 0
M  V30 4483 H 414.627 0.59926 -4.06001 0
M  V30 4484 H 414.158 2.13133 -3.30663 0
M  V30 4485 H 416.173 3.34047 -3.66915 0
M  V30 4486 N 415.346 1.54954 0.287554 0
M  V30 4487 C 416.276 1.89839 1.35954 0
M  V30 4488 C 417.257 0.758675 1.52244 0
M  V30 4489 O 418.442 1.01557 1.65529 0
M  V30 4490 C 415.572 2.15753 2.72154 0
M  V30 4491 C 414.526 3.3159 2.70614 0
M  V30 4492 C 413.852 3.42952 4.10229 0
M  V30 4493 C 415.152 4.68359 2.31165 0
M  V30 4494 H 416.846 2.79625 1.07007 0
M  V30 4495 H 414.392 1.3454 0.513316 0
M  V30 4496 H 416.345 2.38743 3.47246 0
M  V30 4497 H 415.069 1.22752 3.02654 0
M  V30 4498 H 413.728 3.08545 1.97979 0
M  V30 4499 H 413.376 2.47443 4.37928 0
M  V30 4500 H 413.076 4.20826 4.10097 0
M  V30 4501 H 414.6 3.68218 4.87081 0
M  V30 4502 H 416.014 4.9099 2.95976 0
M  V30 4503 H 414.411 5.49044 2.42221 0
M  V30 4504 H 415.481 4.68165 1.26291 0
M  V30 4505 N 416.824 -0.551391 1.4764 0
M  V30 4506 C 418.072 -1.30572 1.54258 0
M  V30 4507 C 418.393 -1.93877 0.208963 0
M  V30 4508 O 417.663 -1.80234 -0.767619 0
M  V30 4509 H 416.243 -0.484894 0.568231 0
M  V30 4510 H 418.905 -0.643402 1.83974 0
M  V30 4511 H 418.001 -2.09621 2.31226 0
M  V30 4512 N 418.302 -1.35869 -0.798587 0
M  V30 4513 C 419.232 -1.32118 -1.92528 0
M  V30 4514 C 420.213 -0.194209 -1.68988 0
M  V30 4515 O 421.398 -0.390426 -1.90235 0
M  V30 4516 C 418.528 -1.10047 -3.29404 0
M  V30 4517 C 417.482 -2.19471 -3.67446 0
M  V30 4518 C 416.808 -1.82555 -5.02571 0
M  V30 4519 C 418.108 -3.61495 -3.76987 0
M  V30 4520 H 419.802 -2.26394 -1.95924 0
M  V30 4521 H 417.348 -1.08981 -0.94123 0
M  V30 4522 H 419.301 -1.06061 -4.07835 0
M  V30 4523 H 418.025 -0.122195 -3.26371 0
M  V30 4524 H 416.684 -2.22568 -2.91306 0
M  V30 4525 H 416.332 -0.833249 -4.9605 0
M  V30 4526 H 416.032 -2.5581 -5.28995 0
M  V30 4527 H 417.556 -1.80108 -5.83432 0
M  V30 4528 H 418.97 -3.60676 -4.4563 0
M  V30 4529 H 417.367 -4.33577 -4.14887 0
M  V30 4530 H 418.437 -3.97065 -2.78329 0
M  V30 4531 N 419.78 1.02168 -1.19998 0
M  V30 4532 C 420.743 2.08765 -0.94604 0
M  V30 4533 C 421.743 1.60618 0.0763846 0
M  V30 4534 O 422.933 1.73472 -0.159135 0
M  V30 4535 C 420.065 3.38262 -0.423255 0
M  V30 4536 H 421.258 2.32726 -1.89153 0
M  V30 4537 H 418.811 1.1889 -1.01464 0
M  V30 4538 H 419.546 3.19974 0.527938 0
M  V30 4539 H 419.331 3.74532 -1.16053 0
M  V30 4540 H 420.821 4.16759 -0.264911 0
M  V30 4541 N 421.258 1.00505 1.21394 0
M  V30 4542 C 422.168 0.574806 2.27449 0
M  V30 4543 C 423.184 -0.382206 1.6975 0
M  V30 4544 O 424.36 -0.246027 1.99892 0
M  V30 4545 C 421.425 -0.0917414 3.46579 0
M  V30 4546 C 420.486 0.909758 4.1955 0
M  V30 4547 C 419.719 0.274924 5.32991 0
M  V30 4548 O 419.942 -0.928254 5.62796 0
M  V30 4549 O 418.876 0.985877 5.93771 0
M  V30 4550 H 422.702 1.45744 2.66444 0
M  V30 4551 H 420.287 0.773923 1.27792 0
M  V30 4552 H 422.169 -0.464551 4.18832 0
M  V30 4553 H 420.844 -0.948755 3.09484 0
M  V30 4554 H 419.751 1.33372 3.49518 0
M  V30 4555 H 421.084 1.73636 4.60555 0
M  V30 4556 N 422.737 -1.36956 0.779787 0
M  V30 4557 C 423.647 -2.33965 0.172491 0
M  V30 4558 C 424.663 -1.60574 -0.670222 0
M  V30 4559 O 425.839 -1.92617 -0.588263 0
M  V30 4560 C 422.904 -3.39761 -0.690173 0
M  V30 4561 C 421.965 -4.28964 0.169924 0
M  V30 4562 C 421.198 -5.29707 -0.651662 0
M  V30 4563 O 421.421 -5.38238 -1.88827 0
M  V30 4564 O 420.355 -6.01873 -0.0566264 0
M  V30 4565 H 424.181 -2.87647 0.974321 0
M  V30 4566 H 421.766 -1.39258 0.541078 0
M  V30 4567 H 423.648 -4.04471 -1.1824 0
M  V30 4568 H 422.323 -2.88394 -1.47006 0
M  V30 4569 H 421.23 -3.67326 0.708696 0
M  V30 4570 H 422.563 -4.83656 0.913085 0
M  V30 4571 N 424.215 -0.530993 -1.48385 0
M  V30 4572 C 425.464 0.00474348 -2.01699 0
M  V30 4573 C 425.777 1.35227 -1.41325 0
M  V30 4574 O 426.983 1.97643 -1.86144 0
M  V30 4575 C 425.439 0.0588473 -3.59852 0
M  V30 4576 C 425.047 -1.28385 -4.2921 0
M  V30 4577 C 426.791 0.543358 -4.21008 0
M  V30 4578 C 424.698 -1.19028 -5.79298 0
M  V30 4579 H 423.628 0.00554317 -0.75398 0
M  V30 4580 H 426.279 -0.674924 -1.70637 0
M  V30 4581 H 424.661 0.803612 -3.8776 0
M  V30 4582 H 425.835 -2.04426 -4.12973 0
M  V30 4583 H 424.15 -1.70418 -3.7993 0
M  V30 4584 H 426.747 0.631351 -5.3096 0
M  V30 4585 H 427.09 1.54937 -3.86394 0
M  V30 4586 H 427.623 -0.145754 -3.97533 0
M  V30 4587 H 424.362 -2.17147 -6.18488 0
M  V30 4588 H 423.882 -0.471246 -5.97946 0
M  V30 4589 H 425.561 -0.881365 -6.40969 0
M  V30 4590 N 425.693 1.55336 -0.266172 0
M  V30 4591 C 426.625 2.19544 0.658247 0
M  V30 4592 C 427.638 1.17746 1.12427 0
M  V30 4593 O 428.827 1.44517 1.04772 0
M  V30 4594 C 425.927 2.80032 1.9088 0
M  V30 4595 C 425.1 4.07436 1.59106 0
M  V30 4596 C 424.159 4.52056 2.69317 0
M  V30 4597 O 423.185 5.18023 2.35883 0
M  V30 4598 N 424.387 4.21448 3.99201 0
M  V30 4599 H 427.152 2.99503 0.108754 0
M  V30 4600 H 424.713 1.61667 -0.0869059 0
M  V30 4601 H 426.705 3.06831 2.63888 0
M  V30 4602 H 425.275 2.04119 2.36758 0
M  V30 4603 H 424.495 3.88021 0.695243 0
M  V30 4604 H 425.783 4.90462 1.35367 0
M  V30 4605 H 425.181 3.68528 4.29189 0
M  V30 4606 H 423.738 4.53039 4.68614 0
M  V30 4607 N 427.171 -0.0066808 1.57599 0
M  V30 4608 C 428.118 -1.00024 2.08 0
M  V30 4609 C 429.088 -1.34549 0.973943 0
M  V30 4610 O 430.273 -1.44502 1.24595 0
M  V30 4611 C 427.413 -2.2891 2.58252 0
M  V30 4612 C 426.526 -2.00346 3.82734 0
M  V30 4613 C 425.661 -3.23265 4.21513 0
M  V30 4614 C 424.7 -2.90357 5.3885 0
M  V30 4615 N 423.837 -4.05793 5.72954 0
M  V30 4616 H 428.677 -0.563499 2.92624 0
M  V30 4617 H 426.214 -0.266592 1.44664 0
M  V30 4618 H 428.172 -3.04247 2.85464 0
M  V30 4619 H 426.802 -2.70265 1.76512 0
M  V30 4620 H 425.854 -1.15406 3.62471 0
M  V30 4621 H 427.166 -1.72086 4.68175 0
M  V30 4622 H 426.32 -4.06953 4.49971 0
M  V30 4623 H 425.059 -3.54657 3.34768 0
M  V30 4624 H 424.064 -2.05075 5.10122 0
M  V30 4625 H 425.289 -2.60219 6.27266 0
M  V30 4626 H 423.235 -4.37094 4.89167 0
M  V30 4627 H 423.152 -3.81034 6.52954 0
M  V30 4628 H 424.42 -4.90289 6.06001 0
M  V30 4629 N 428.649 -1.55105 -0.279332 0
M  V30 4630 C 429.879 -1.7917 -1.02867 0
M  V30 4631 C 430.287 -0.56204 -1.80659 0
M  V30 4632 O 429.63 0.478266 -1.77365 0
M  V30 4633 C 429.692 -2.96061 -2.03932 0
M  V30 4634 C 429.356 -4.33341 -1.45137 0
M  V30 4635 C 430.353 -5.12565 -0.870266 0
M  V30 4636 C 428.038 -4.79987 -1.48048 0
M  V30 4637 C 430.032 -6.36565 -0.326097 0
M  V30 4638 C 427.719 -6.03944 -0.932443 0
M  V30 4639 C 428.717 -6.8207 -0.356247 0
M  V30 4640 O 428.405 -8.03691 0.183412 0
M  V30 4641 H 428.137 -0.600796 -0.309872 0
M  V30 4642 H 430.691 -2.02932 -0.317468 0
M  V30 4643 H 428.921 -2.67975 -2.78794 0
M  V30 4644 H 430.61 -3.07506 -2.64943 0
M  V30 4645 H 431.376 -4.77661 -0.840521 0
M  V30 4646 H 427.255 -4.1919 -1.91835 0
M  V30 4647 H 430.799 -6.97489 0.124286 0
M  V30 4648 H 426.696 -6.3833 -0.959407 0
M  V30 4649 H 427.464 -8.18468 0.0721681 0
M  V30 4650 N 430.127 0.543554 -1.4793 0
M  V30 4651 C 431.367 1.31072 -1.56843 0
M  V30 4652 C 431.731 1.90604 -0.231124 0
M  V30 4653 O 432.932 2.68091 -0.195165 0
M  V30 4654 C 431.203 2.38106 -2.66533 0
M  V30 4655 S 432.762 3.24729 -2.95122 0
M  V30 4656 H 429.58 0.446035 -0.553691 0
M  V30 4657 H 432.182 0.620777 -1.85382 0
M  V30 4658 H 430.886 1.92828 -3.62278 0
M  V30 4659 H 430.417 3.11824 -2.39852 0
M  V30 4660 H 432.432 4.37891 -2.3338 0
M  V30 4661 N 431.605 1.3629 0.791371 0
M  V30 4662 C 432.845 1.31792 1.56238 0
M  V30 4663 C 433.209 -0.102237 1.91728 0
M  V30 4664 O 434.41 -0.271759 2.67423 0
M  V30 4665 C 432.681 2.21303 2.80642 0
M  V30 4666 S 434.24 2.34468 3.70904 0
M  V30 4667 H 431.058 0.468141 0.535131 0
M  V30 4668 H 433.66 1.71841 0.932246 0
M  V30 4669 H 432.364 3.23439 2.52617 0
M  V30 4670 H 431.895 1.82266 3.4863 0
M  V30 4671 H 433.91 1.54074 4.71673 0
M  V30 4672 N 433.083 -1.0153 1.20538 0
M  V30 4673 C 434.308 -1.79283 1.04271 0
M  V30 4674 C 434.733 -1.8372 -0.403544 0
M  V30 4675 O 434.091 -1.27321 -1.2907 0
M  V30 4676 C 434.139 -3.21535 1.63241 0
M  V30 4677 O 433.243 -4.03099 0.870908 0
M  V30 4678 H 432.584 -0.55293 0.367647 0
M  V30 4679 H 435.114 -1.27696 1.59859 0
M  V30 4680 H 435.124 -3.72243 1.6703 0
M  V30 4681 H 433.799 -3.1762 2.68497 0
M  V30 4682 H 432.376 -3.61693 0.907323 0
M  V30 4683 N 434.561 -1.01147 -1.20859 0
M  V30 4684 C 435.977 -0.725422 -1.42161 0
M  V30 4685 C 436.177 0.696919 -1.89064 0
M  V30 4686 O 435.233 1.46539 -2.05627 0
M  V30 4687 C 436.546 -1.74678 -2.44761 0
M  V30 4688 C 438.094 -1.76433 -2.58535 0
M  V30 4689 C 438.569 -2.77481 -3.64374 0
M  V30 4690 N 440.06 -2.76189 -3.71852 0
M  V30 4691 C 440.795 -3.51035 -4.53389 0
M  V30 4692 N 440.291 -4.35541 -5.38773 0
M  V30 4693 N 442.084 -3.39655 -4.47873 0
M  V30 4694 H 434.235 -1.92979 -0.887282 0
M  V30 4695 H 436.498 -0.833327 -0.451962 0
M  V30 4696 H 436.204 -2.76551 -2.17285 0
M  V30 4697 H 436.078 -1.55472 -3.43669 0
M  V30 4698 H 438.465 -0.75248 -2.85345 0
M  V30 4699 H 438.546 -1.99712 -1.5984 0
M  V30 4700 H 438.19 -3.78827 -3.38308 0
M  V30 4701 H 438.12 -2.51466 -4.6268 0
M  V30 4702 H 440.611 -2.14885 -3.10858 0
M  V30 4703 H 440.924 -4.89432 -5.98061 0
M  V30 4704 H 439.269 -4.39621 -5.38292 0
M  V30 4705 H 442.46 -2.73063 -3.80203 0
M  V30 4706 H 442.633 -3.9824 -5.11184 0
M  V30 4707 N 436.039 1.36541 -0.78704 0
M  V30 4708 C 436.986 2.30082 -0.181901 0
M  V30 4709 C 437.956 1.5186 0.672896 0
M  V30 4710 O 439.141 1.80374 0.622072 0
M  V30 4711 C 436.281 3.3835 0.679197 0
M  V30 4712 C 435.394 4.31565 -0.193882 0
M  V30 4713 C 434.529 5.26915 0.673364 0
M  V30 4714 C 433.568 6.11769 -0.201315 0
M  V30 4715 N 432.705 6.99315 0.624777 0
M  V30 4716 H 437.545 2.81248 -0.985064 0
M  V30 4717 H 435.082 1.38437 -0.497342 0
M  V30 4718 H 437.04 3.99767 1.19341 0
M  V30 4719 H 435.67 2.8851 1.44781 0
M  V30 4720 H 434.722 3.71323 -0.826044 0
M  V30 4721 H 436.034 4.91191 -0.867937 0
M  V30 4722 H 435.188 5.9361 1.25348 0
M  V30 4723 H 433.927 4.67737 1.38105 0
M  V30 4724 H 432.932 5.44039 -0.793849 0
M  V30 4725 H 434.157 6.73022 -0.906568 0
M  V30 4726 H 432.103 6.42648 1.3168 0
M  V30 4727 H 432.02 7.56 0.00835237 0
M  V30 4728 H 433.288 7.70382 1.18879 0
M  V30 4729 O 437.556 0.680126 1.4648 0
M  V30 4730 H 438.247 0.213972 1.92515 0
M  V30 END ATOM
M  V30 BEGIN BOND
M  V30 END BOND
M  V30 END CTAB
M  END
$$$$
