drugbank_target|P80511 Protein S100-A12 (DB00768; DB01025)
 OpenBabel12092119493D

  0  0  0     0  0            999 V3000
M  V30 BEGIN CTAB
M  V30 COUNTS 1496 1508 0 0 0
M  V30 BEGIN ATOM
M  V30 1 H -0.908 1.98254 -0.117106 0
M  V30 2 N 0 1.576 0 0
M  V30 3 C 0.933 2.03868 1.02534 0
M  V30 4 C 1.911 0.928543 1.3348 0
M  V30 5 O 3.095 1.19667 1.45644 0
M  V30 6 C 0.222 2.43627 2.35294 0
M  V30 7 C -0.732 3.65373 2.2001 0
M  V30 8 S 0.101 5.13292 1.52614 0
M  V30 9 C 1.257 5.56322 2.86805 0
M  V30 10 H 1.49 2.90518 0.631377 0
M  V30 11 H -0.977 1.52953 0.210867 0
M  V30 12 H 0.981 2.67203 3.11629 0
M  V30 13 H -0.358 1.57376 2.7183 0
M  V30 14 H -1.165 3.90944 3.18086 0
M  V30 15 H -1.563 3.418 1.51819 0
M  V30 16 H 0.729 5.58782 3.83104 0
M  V30 17 H 1.672 6.56266 2.65933 0
M  V30 18 H 2.08 4.83886 2.90714 0
M  V30 19 N 1.4781 -0.272755 1.55222 0
M  V30 20 C 2.7061 -1.02255 1.79865 0
M  V30 21 C 3.1211 -1.79924 0.572088 0
M  V30 22 O 2.4781 -1.76638 -0.458842 0
M  V30 23 C 2.5291 -1.98094 3.02392 0
M  V30 24 O 2.2501 -1.23572 4.20311 0
M  V30 25 C 3.7511 -2.84884 3.39641 0
M  V30 26 H 0.9711 -0.302057 0.599168 0
M  V30 27 H 3.5151 -0.303465 2.02236 0
M  V30 28 H 1.6701 -2.65465 2.82147 0
M  V30 29 H 2.0841 -1.88172 4.89583 0
M  V30 30 H 3.5581 -3.47927 4.28545 0
M  V30 31 H 4.0351 -3.54665 2.59055 0
M  V30 32 H 4.6411 -2.23003 3.62146 0
M  V30 33 N 2.9562 -1.48159 -0.537278 0
M  V30 34 C 3.9032 -1.62138 -1.64256 0
M  V30 35 C 4.8732 -0.463668 -1.59497 0
M  V30 36 O 6.0582 -0.686241 -1.78032 0
M  V30 37 C 3.1982 -1.66028 -3.02537 0
M  V30 38 C 2.3112 -2.92855 -3.17585 0
M  V30 39 C 1.4462 -2.87952 -4.46382 0
M  V30 40 C 0.4852 -4.09516 -4.54932 0
M  V30 41 N -0.3778 -4.02733 -5.75109 0
M  V30 42 H 4.4622 -2.56529 -1.51647 0
M  V30 43 H 1.9992 -1.27224 -0.738414 0
M  V30 44 H 3.9572 -1.66265 -3.82638 0
M  V30 45 H 2.5872 -0.751331 -3.13934 0
M  V30 46 H 1.6392 -3.02395 -2.30784 0
M  V30 47 H 2.9512 -3.82822 -3.19764 0
M  V30 48 H 2.1052 -2.8655 -5.34765 0
M  V30 49 H 0.8442 -1.95702 -4.46712 0
M  V30 50 H -0.1508 -4.11201 -3.64957 0
M  V30 51 H 1.0742 -5.02917 -4.56346 0
M  V30 52 H -0.9798 -3.13299 -5.76351 0
M  V30 53 H -1.0628 -4.86397 -5.78752 0
M  V30 54 H 0.2052 -4.05379 -6.65799 0
M  V30 55 N 4.4343 0.785586 -1.36625 0
M  V30 56 C 5.3643 1.91259 -1.33949 0
M  V30 57 C 6.3453 1.68795 -0.210325 0
M  V30 58 O 7.5303 1.89854 -0.408561 0
M  V30 59 C 4.6603 3.28339 -1.13186 0
M  V30 60 C 3.6143 3.65335 -2.22967 0
M  V30 61 C 2.9403 5.00806 -1.87342 0
M  V30 62 C 4.2403 3.7352 -3.65075 0
M  V30 63 H 5.9343 1.93755 -2.28253 0
M  V30 64 H 3.4803 0.930788 -1.09874 0
M  V30 65 H 5.4333 4.06804 -1.09948 0
M  V30 66 H 4.1573 3.2624 -0.153332 0
M  V30 67 H 2.8163 2.89169 -2.25337 0
M  V30 68 H 2.4643 4.95233 -0.880545 0
M  V30 69 H 2.1643 5.26529 -2.60846 0
M  V30 70 H 3.6883 5.81687 -1.85667 0
M  V30 71 H 5.1023 4.42168 -3.64911 0
M  V30 72 H 3.4993 4.10731 -4.37516 0
M  V30 73 H 4.5693 2.74527 -3.99703 0
M  V30 74 N 5.9124 1.20967 1.01018 0
M  V30 75 C 6.8224 0.980157 2.13143 0
M  V30 76 C 7.8384 -0.0660665 1.73875 0
M  V30 77 O 9.0144 0.122821 2.01025 0
M  V30 78 C 6.0794 0.54216 3.42435 0
M  V30 79 C 5.1404 1.65999 3.95908 0
M  V30 80 C 4.3734 1.2428 5.19028 0
M  V30 81 O 4.5964 0.114196 5.70286 0
M  V30 82 O 3.5304 2.05271 5.65816 0
M  V30 83 H 7.3564 1.91913 2.35379 0
M  V30 84 H 4.9414 0.994099 1.11526 0
M  V30 85 H 6.8234 0.30744 4.20277 0
M  V30 86 H 5.4984 -0.36815 3.216 0
M  V30 87 H 4.4054 1.94906 3.19316 0
M  V30 88 H 5.7384 2.54753 4.21143 0
M  V30 89 N 7.3905 -1.2043 1.01659 0
M  V30 90 C 8.3005 -2.2689 0.596484 0
M  V30 91 C 9.3165 -1.70107 -0.36599 0
M  V30 92 O 10.4925 -2.00117 -0.226942 0
M  V30 93 C 7.5575 -3.4665 -0.0586659 0
M  V30 94 C 6.6185 -4.18662 0.949751 0
M  V30 95 C 5.8515 -5.32705 0.32577 0
M  V30 96 O 6.0745 -5.63656 -0.874509 0
M  V30 97 O 5.0085 -5.92803 1.04249 0
M  V30 98 H 8.8345 -2.65041 1.4828 0
M  V30 99 H 6.4195 -1.27048 0.786082 0
M  V30 100 H 8.3015 -4.19256 -0.424564 0
M  V30 101 H 6.9765 -3.10375 -0.91918 0
M  V30 102 H 5.8835 -3.48229 1.36702 0
M  V30 103 H 7.2165 -4.58878 1.78023 0
M  V30 104 N 8.8686 -0.792821 -1.36206 0
M  V30 105 C 9.8186 -0.166598 -2.27391 0
M  V30 106 C 10.8026 0.651479 -1.47121 0
M  V30 107 O 11.9946 0.510994 -1.69463 0
M  V30 108 C 9.1236 0.695033 -3.36191 0
M  V30 109 C 8.2096 -0.132019 -4.23894 0
M  V30 110 N 8.6006 -1.18822 -4.91645 0
M  V30 111 C 6.8986 0.0885952 -4.45912 0
M  V30 112 C 7.5996 -1.69198 -5.56549 0
M  V30 113 N 6.5756 -1.00065 -5.34311 0
M  V30 114 H 10.3776 -0.974947 -2.77258 0
M  V30 115 H 7.8916 -0.632616 -1.49572 0
M  V30 116 H 9.8886 1.1596 -4.00448 0
M  V30 117 H 8.5486 1.50189 -2.87877 0
M  V30 118 H 9.5596 -1.57069 -4.93507 0
M  V30 119 H 6.2366 0.865688 -4.08426 0
M  V30 120 H 7.6266 -2.57395 -6.20643 0
M  V30 121 N 10.3467 1.47872 -0.545128 0
M  V30 122 C 11.2767 2.32661 0.197793 0
M  V30 123 C 12.2577 1.43041 0.920504 0
M  V30 124 O 13.4427 1.71912 0.90333 0
M  V30 125 C 10.5727 3.24569 1.23582 0
M  V30 126 C 9.5267 4.23333 0.630323 0
M  V30 127 C 8.8527 5.0448 1.77211 0
M  V30 128 C 10.1527 5.20704 -0.407974 0
M  V30 129 H 11.8467 2.95024 -0.510045 0
M  V30 130 H 9.3927 1.4187 -0.246731 0
M  V30 131 H 11.3457 3.8272 1.76362 0
M  V30 132 H 10.0697 2.60236 1.97344 0
M  V30 133 H 8.7287 3.6639 0.123922 0
M  V30 134 H 8.3767 4.36561 2.49847 0
M  V30 135 H 8.0767 5.71339 1.37281 0
M  V30 136 H 9.6007 5.65487 2.3034 0
M  V30 137 H 11.0147 5.7329 0.033305 0
M  V30 138 H 9.4117 5.95699 -0.725486 0
M  V30 139 H 10.4817 4.66917 -1.30828 0
M  V30 140 N 11.8248 0.280983 1.55075 0
M  V30 141 C 12.7348 -0.61388 2.26426 0
M  V30 142 C 13.7508 -1.16521 1.29224 0
M  V30 143 O 14.9268 -1.19426 1.62171 0
M  V30 144 C 11.9918 -1.7788 2.9759 0
M  V30 145 C 11.0528 -1.26355 4.10284 0
M  V30 146 C 10.2858 -2.37295 4.78045 0
M  V30 147 O 10.5088 -3.56777 4.45047 0
M  V30 148 O 9.4428 -2.05119 5.65871 0
M  V30 149 H 13.2688 -0.0356932 3.03679 0
M  V30 150 H 10.8538 0.0481686 1.49322 0
M  V30 151 H 12.7358 -2.45791 3.42293 0
M  V30 152 H 11.4108 -2.34397 2.23249 0
M  V30 153 H 10.3178 -0.550735 3.70024 0
M  V30 154 H 11.6508 -0.744065 4.86543 0
M  V30 155 N 13.3029 -1.57598 0.00835791 0
M  V30 156 C 14.5509 -1.90551 -0.6734 0
M  V30 157 C 14.8719 -0.883301 -1.73847 0
M  V30 158 O 14.1419 0.0781442 -1.95744 0
M  V30 159 H 12.7219 -0.703312 -0.251717 0
M  V30 160 H 15.3839 -1.94833 0.0512592 0
M  V30 161 H 14.4799 -2.9056 -1.13935 0
M  V30 162 N 14.781 0.264519 -1.55364 0
M  V30 163 C 16.03 0.992812 -1.75574 0
M  V30 164 C 16.343 1.87142 -0.568979 0
M  V30 165 O 17.549 2.63513 -0.653682 0
M  V30 166 C 16.005 1.81519 -3.10771 0
M  V30 167 C 15.613 0.984839 -4.37041 0
M  V30 168 C 17.357 2.53727 -3.40327 0
M  V30 169 C 15.264 1.80209 -5.63275 0
M  V30 170 H 14.194 0.374412 -0.65447 0
M  V30 171 H 16.845 0.248138 -1.81815 0
M  V30 172 H 15.227 2.60115 -2.98591 0
M  V30 173 H 16.401 0.242455 -4.60162 0
M  V30 174 H 14.716 0.37691 -4.14691 0
M  V30 175 H 17.313 3.15292 -4.3185 0
M  V30 176 H 17.656 3.24447 -2.60845 0
M  V30 177 H 18.189 1.82156 -3.53644 0
M  V30 178 H 14.928 1.13896 -6.45529 0
M  V30 179 H 14.448 2.52022 -5.44284 0
M  V30 180 H 16.127 2.37364 -6.01887 0
M  V30 181 N 16.2591 1.48442 0.529413 0
M  V30 182 C 17.5051 1.5672 1.28711 0
M  V30 183 C 17.8381 0.2406 1.92704 0
M  V30 184 O 17.1131 -0.753454 1.79313 0
M  V30 185 C 17.3961 2.70587 2.37603 0
M  V30 186 C 17.2491 4.12953 1.78297 0
M  V30 187 C 18.5681 2.80212 3.39366 0
M  V30 188 H 15.6871 0.570474 0.466613 0
M  V30 189 H 18.3291 1.80617 0.589706 0
M  V30 190 H 16.4791 2.50342 2.97088 0
M  V30 191 H 18.1511 4.44639 1.22858 0
M  V30 192 H 16.3941 4.19927 1.0883 0
M  V30 193 H 17.0651 4.88448 2.57144 0
M  V30 194 H 19.5411 2.98553 2.89836 0
M  V30 195 H 18.4171 3.61611 4.12951 0
M  V30 196 H 18.6781 1.88393 3.99951 0
M  V30 197 N 17.7372 -0.778329 1.37039 0
M  V30 198 C 18.6852 -1.91278 1.32345 0
M  V30 199 C 19.6792 -1.68051 0.213331 0
M  V30 200 O 20.8852 -1.75922 0.38098 0
M  V30 201 H 17.2602 -0.628909 0.412283 0
M  V30 202 H 19.2312 -1.92355 2.28127 0
M  V30 203 C 17.9802 -3.28455 1.14073 0
M  V30 204 H 17.3032 -3.46901 1.98746 0
M  V30 205 H 18.7432 -4.08152 1.14837 0
M  V30 206 C 17.2022 -3.36548 -0.154015 0
M  V30 207 O 17.7322 -3.85186 -1.13993 0
M  V30 208 N 15.9382 -2.89894 -0.202475 0
M  V30 209 H 15.4852 -2.50504 0.600476 0
M  V30 210 H 15.4432 -2.9569 -1.06841 0
M  V30 211 N 19.2153 -1.21501 -1.00376 0
M  V30 212 C 20.4643 -1.02718 -1.73586 0
M  V30 213 C 20.7773 0.439589 -1.90596 0
M  V30 214 O 21.9833 0.746848 -2.61026 0
M  V30 215 C 20.4393 -1.78929 -3.1227 0
M  V30 216 C 20.0473 -3.29783 -3.03228 0
M  V30 217 C 21.7913 -1.68557 -3.89601 0
M  V30 218 C 19.6983 -3.98479 -4.36999 0
M  V30 219 H 18.6283 -0.380733 -0.650814 0
M  V30 220 H 21.2793 -1.45248 -1.1214 0
M  V30 221 H 19.6613 -1.29192 -3.74333 0
M  V30 222 H 20.8353 -3.86832 -2.50395 0
M  V30 223 H 19.1503 -3.40711 -2.39385 0
M  V30 224 H 21.7473 -2.17211 -4.88593 0
M  V30 225 H 22.0903 -0.644021 -4.11288 0
M  V30 226 H 22.6233 -2.15778 -3.34193 0
M  V30 227 H 19.3623 -5.02841 -4.20513 0
M  V30 228 H 18.8823 -3.46219 -4.89788 0
M  V30 229 H 20.5613 -4.03462 -5.05794 0
M  V30 230 N 20.6934 1.19889 -1.02296 0
M  V30 231 C 21.9404 1.8942 -0.715972 0
M  V30 232 C 22.2684 1.79251 0.754944 0
M  V30 233 O 21.5234 1.17526 1.56481 0
M  V30 234 C 21.8224 3.39883 -1.10518 0
M  V30 235 C 21.4884 3.70254 -2.57337 0
M  V30 236 C 20.1504 3.78254 -2.97452 0
M  V30 237 C 22.5024 3.84052 -3.52354 0
M  V30 238 C 19.8304 3.97514 -4.31509 0
M  V30 239 C 22.1824 4.04824 -4.86108 0
M  V30 240 C 20.8464 4.11054 -5.25919 0
M  V30 241 H 20.1164 0.693138 -0.261993 0
M  V30 242 H 22.7634 1.42012 -1.28472 0
M  V30 243 H 21.0684 3.8915 -0.454953 0
M  V30 244 H 22.7654 3.9199 -0.845261 0
M  V30 245 H 19.3554 3.64632 -2.25258 0
M  V30 246 H 23.5394 3.77221 -3.22518 0
M  V30 247 H 18.7954 4.00574 -4.61898 0
M  V30 248 H 22.9694 4.14442 -5.59653 0
M  V30 249 H 20.5964 4.2573 -6.29808 0
M  V30 250 N 22.1715 0.800033 1.35784 0
M  V30 251 C 23.1215 0.178654 2.27299 0
M  V30 252 C 24.1055 -0.643667 1.47464 0
M  V30 253 O 25.2975 -0.502 1.69732 0
M  V30 254 C 22.4265 -0.677194 3.36555 0
M  V30 255 C 21.5125 0.154497 4.23818 0
M  V30 256 N 21.9035 1.21427 4.91008 0
M  V30 257 C 20.2015 -0.0649462 4.45953 0
M  V30 258 C 20.9025 1.72147 5.55644 0
M  V30 259 N 19.8785 1.02897 5.33773 0
M  V30 260 H 23.6805 0.989637 2.76737 0
M  V30 261 H 21.1945 0.64054 1.49234 0
M  V30 262 H 23.1915 -1.13835 4.01058 0
M  V30 263 H 21.8515 -1.4866 2.8867 0
M  V30 264 H 22.8625 1.59684 4.92668 0
M  V30 265 H 19.5395 -0.844016 4.0888 0
M  V30 266 H 20.9295 2.60683 6.19269 0
M  V30 267 N 23.6496 -1.47581 0.552962 0
M  V30 268 C 24.5816 -2.27997 -0.234533 0
M  V30 269 C 25.5946 -1.36753 -0.883321 0
M  V30 270 O 26.7836 -1.61612 -0.757889 0
M  V30 271 C 23.8836 -3.10879 -1.34935 0
M  V30 272 C 23.0566 -4.30056 -0.798158 0
M  V30 273 C 22.1156 -4.94567 -1.79694 0
M  V30 274 O 21.1416 -5.53087 -1.34474 0
M  V30 275 N 22.3436 -4.88878 -3.13015 0
M  V30 276 H 25.1086 -2.96222 0.455255 0
M  V30 277 H 22.6696 -1.57163 0.388761 0
M  V30 278 H 24.6616 -3.50903 -2.01616 0
M  V30 279 H 23.2316 -2.44924 -1.94244 0
M  V30 280 H 22.4516 -3.94174 0.0453079 0
M  V30 281 H 23.7396 -5.07152 -0.409173 0
M  V30 282 H 23.1376 -4.42526 -3.52402 0
M  V30 283 H 21.6946 -5.32934 -3.75266 0
M  V30 284 N 25.1277 -0.289203 -1.54924 0
M  V30 285 C 26.3577 0.325989 -2.04012 0
M  V30 286 C 26.7657 1.48961 -1.1665 0
M  V30 287 O 26.1087 1.82794 -0.1822 0
M  V30 288 C 26.1707 0.856112 -3.49158 0
M  V30 289 C 25.8347 -0.180697 -4.56643 0
M  V30 290 C 26.8317 -1.0051 -5.10092 0
M  V30 291 C 24.5167 -0.318998 -5.01286 0
M  V30 292 C 26.5107 -1.95385 -6.06715 0
M  V30 293 C 24.1977 -1.27121 -5.97732 0
M  V30 294 C 25.1957 -2.08713 -6.50329 0
M  V30 295 O 24.8837 -3.02322 -7.44887 0
M  V30 296 H 24.6157 0.0765276 -0.671654 0
M  V30 297 H 27.1697 -0.423254 -2.00992 0
M  V30 298 H 25.3997 1.65567 -3.49463 0
M  V30 299 H 27.0887 1.38591 -3.81507 0
M  V30 300 H 27.8547 -0.90906 -4.76404 0
M  V30 301 H 23.7337 0.306108 -4.59983 0
M  V30 302 H 27.2777 -2.59111 -6.47694 0
M  V30 303 H 23.1747 -1.36801 -6.30837 0
M  V30 304 H 23.9427 -2.97165 -7.6265 0
M  V30 305 N 26.6058 1.57591 -0.0167156 0
M  V30 306 C 27.8308 1.9598 0.67872 0
M  V30 307 C 28.2558 0.892546 1.65575 0
M  V30 308 O 27.6138 -0.147772 1.80697 0
M  V30 309 C 27.6618 3.33468 1.37227 0
M  V30 310 O 26.7658 3.28954 2.48722 0
M  V30 311 H 26.1068 0.639339 0.17928 0
M  V30 312 H 28.6368 2.04463 -0.0748802 0
M  V30 313 H 28.6468 3.69417 1.7319 0
M  V30 314 H 27.3218 4.10694 0.656007 0
M  V30 315 H 25.8988 3.04705 2.14963 0
M  V30 316 N 28.0839 -0.256276 1.55502 0
M  V30 317 C 29.3299 -0.987079 1.77157 0
M  V30 318 C 29.6629 -1.85327 0.580315 0
M  V30 319 O 28.9379 -1.89874 -0.421686 0
M  V30 320 C 29.2209 -1.85553 3.08613 0
M  V30 321 C 29.0739 -1.01816 4.38125 0
M  V30 322 C 30.3929 -2.8397 3.36228 0
M  V30 323 H 27.5119 -0.357428 0.644526 0
M  V30 324 H 30.1539 -0.258239 1.88237 0
M  V30 325 H 28.3039 -2.47695 2.99298 0
M  V30 326 H 29.9759 -0.416159 4.59419 0
M  V30 327 H 28.2189 -0.322178 4.32602 0
M  V30 328 H 28.8899 -1.65939 5.26468 0
M  V30 329 H 31.3659 -2.31964 3.45445 0
M  V30 330 H 30.2419 -3.41864 4.29442 0
M  V30 331 H 30.5029 -3.59955 2.56681 0
M  V30 332 N 29.562 -1.4872 -0.521534 0
M  V30 333 C 30.978 -1.35028 -0.850855 0
M  V30 334 C 31.178 -0.367712 -1.98116 0
M  V30 335 O 30.234 0.208037 -2.51642 0
M  V30 336 C 31.547 -2.75263 -1.21041 0
M  V30 337 C 33.095 -2.83813 -1.31981 0
M  V30 338 C 33.57 -4.24769 -1.71276 0
M  V30 339 N 35.061 -4.27482 -1.78363 0
M  V30 340 C 35.796 -5.33494 -2.1017 0
M  V30 341 N 35.292 -6.49775 -2.40343 0
M  V30 342 N 37.085 -5.20894 -2.11248 0
M  V30 343 H 29.236 -2.11214 0.22413 0
M  V30 344 H 31.499 -0.947252 0.0376439 0
M  V30 345 H 31.205 -3.48765 -0.453415 0
M  V30 346 H 31.079 -3.09327 -2.15863 0
M  V30 347 H 33.466 -2.10561 -2.06756 0
M  V30 348 H 33.547 -2.53358 -0.352596 0
M  V30 349 H 33.191 -4.9854 -0.970588 0
M  V30 350 H 33.121 -4.52673 -2.69062 0
M  V30 351 H 35.612 -3.43611 -1.57288 0
M  V30 352 H 35.925 -7.26402 -2.63743 0
M  V30 353 H 34.27 -6.53035 -2.37844 0
M  V30 354 H 37.461 -4.29065 -1.87139 0
M  V30 355 H 37.634 -6.03612 -2.35704 0
M  V30 356 N 31.0401 0.771051 -1.3745 0
M  V30 357 C 31.9871 1.88435 -1.3327 0
M  V30 358 C 32.9571 1.64914 -0.198136 0
M  V30 359 O 34.1421 1.86821 -0.387606 0
M  V30 360 C 31.2821 3.25509 -1.14622 0
M  V30 361 C 30.3951 3.60979 -2.37314 0
M  V30 362 C 29.5301 4.87265 -2.11533 0
M  V30 363 C 28.5691 5.15469 -3.30088 0
M  V30 364 N 27.7061 6.32944 -3.03853 0
M  V30 365 H 32.5461 1.91344 -2.28455 0
M  V30 366 H 30.0831 0.935466 -1.13523 0
M  V30 367 H 32.0411 4.04582 -1.01831 0
M  V30 368 H 30.6711 3.21974 -0.230837 0
M  V30 369 H 29.7231 2.76885 -2.60842 0
M  V30 370 H 31.0351 3.77759 -3.25729 0
M  V30 371 H 30.1891 5.74244 -1.95777 0
M  V30 372 H 28.9281 4.7259 -1.20457 0
M  V30 373 H 27.9331 4.26966 -3.46382 0
M  V30 374 H 29.1581 5.32052 -4.22016 0
M  V30 375 H 27.1041 6.19625 -2.15407 0
M  V30 376 H 27.0211 6.50143 -3.85812 0
M  V30 377 H 28.2891 7.22857 -2.91716 0
M  V30 378 N 32.5182 1.22032 0.997298 0
M  V30 379 C 33.7662 1.04016 1.73278 0
M  V30 380 C 34.0872 -0.426255 1.90284 0
M  V30 381 O 33.3572 -1.30694 1.45931 0
M  V30 382 H 31.9372 0.381897 0.642 0
M  V30 383 H 34.5992 1.5347 1.20137 0
M  V30 384 H 33.6952 1.51441 2.72896 0
M  V30 385 N 33.9963 -1.19345 1.0293 0
M  V30 386 C 34.9463 -2.20472 0.58104 0
M  V30 387 C 35.9303 -1.56578 -0.370442 0
M  V30 388 O 37.1223 -1.75963 -0.191344 0
M  V30 389 C 34.2513 -3.43236 -0.066306 0
M  V30 390 C 33.3373 -4.14274 0.907642 0
M  V30 391 N 33.7283 -4.61492 2.07023 0
M  V30 392 C 32.0263 -4.39966 0.731177 0
M  V30 393 C 32.7273 -5.1605 2.68454 0
M  V30 394 N 31.7033 -5.06875 1.96414 0
M  V30 395 H 35.5053 -2.54659 1.46717 0
M  V30 396 H 33.0193 -1.35423 0.896345 0
M  V30 397 H 35.0163 -4.14927 -0.405068 0
M  V30 398 H 33.6763 -3.10549 -0.948118 0
M  V30 399 H 34.6873 -4.56304 2.44963 0
M  V30 400 H 31.3643 -4.17377 -0.101507 0
M  V30 401 H 32.7543 -5.6287 3.66915 0
M  V30 402 N 35.4744 -0.807222 -1.35358 0
M  V30 403 C 36.7214 -0.387888 -1.9875 0
M  V30 404 C 37.0494 1.04509 -1.64037 0
M  V30 405 O 36.3044 1.73986 -0.895946 0
M  V30 406 C 36.6034 -0.519036 -3.53611 0
M  V30 407 C 36.2694 -1.91542 -4.08194 0
M  V30 408 C 34.9314 -2.29745 -4.22813 0
M  V30 409 C 37.2834 -2.82896 -4.37744 0
M  V30 410 C 34.6114 -3.58668 -4.643 0
M  V30 411 C 36.9634 -4.11265 -4.8067 0
M  V30 412 C 35.6274 -4.49466 -4.93494 0
M  V30 413 H 34.8974 -0.141938 -0.727279 0
M  V30 414 H 37.5444 -1.02814 -1.6156 0
M  V30 415 H 35.8494 0.204658 -3.91265 0
M  V30 416 H 37.5464 -0.175345 -4.00616 0
M  V30 417 H 34.1364 -1.60862 -3.97268 0
M  V30 418 H 38.3204 -2.54629 -4.26002 0
M  V30 419 H 33.5764 -3.88113 -4.72418 0
M  V30 420 H 37.7504 -4.82153 -5.02496 0
M  V30 421 H 35.3774 -5.49418 -5.25399 0
M  V30 422 N 36.9525 1.47285 -0.560781 0
M  V30 423 C 38.2295 1.9558 0.0277798 0
M  V30 424 C 38.6095 1.5034 1.48192 0
M  V30 425 O 37.9575 0.743882 2.16052 0
M  V30 426 C 38.1675 3.48789 -0.121418 0
M  V30 427 C 39.5155 4.24594 0.0220912 0
M  V30 428 O 40.5395 3.56166 -0.0491439 0
M  V30 429 O 39.3985 5.46217 0.175958 0
M  V30 430 H 36.4925 0.824663 0.0621342 0
M  V30 431 H 39.0385 1.5767 -0.627556 0
M  V30 432 H 37.8105 3.74533 -1.13316 0
M  V30 433 H 37.4335 3.93473 0.571366 0
M  V30 434 N 38.4306 0.297415 1.54768 0
M  V30 435 C 39.6586 -0.315623 2.04478 0
M  V30 436 C 40.0736 -1.47792 1.17486 0
M  V30 437 O 39.4306 -1.81404 0.19971 0
M  V30 438 C 39.4816 -0.7753 3.53088 0
M  V30 439 O 39.2026 0.340732 4.36773 0
M  V30 440 C 40.7036 -1.45386 4.18781 0
M  V30 441 H 37.9236 -0.0690887 0.667434 0
M  V30 442 H 40.4676 0.436003 1.99798 0
M  V30 443 H 38.6226 -1.47696 3.58141 0
M  V30 444 H 39.0366 -0.0165035 5.24497 0
M  V30 445 H 40.5106 -1.72669 5.24299 0
M  V30 446 H 40.9876 -2.39275 3.68299 0
M  V30 447 H 41.5936 -0.795475 4.17795 0
M  V30 448 N 39.9087 -1.5758 0.0250728 0
M  V30 449 C 40.8387 -2.13007 -0.956575 0
M  V30 450 C 41.8197 -1.0452 -1.342 0
M  V30 451 O 43.0047 -1.32332 -1.42133 0
M  V30 452 C 40.1347 -2.65386 -2.24026 0
M  V30 453 C 39.0887 -3.78623 -1.99571 0
M  V30 454 C 38.4147 -4.17414 -3.3417 0
M  V30 455 C 39.7147 -5.04867 -1.33814 0
M  V30 456 H 41.4087 -2.9528 -0.494991 0
M  V30 457 H 38.9547 -1.42042 -0.236651 0
M  V30 458 H 40.9077 -3.02794 -2.93076 0
M  V30 459 H 39.6317 -1.80268 -2.72343 0
M  V30 460 H 38.2907 -3.41646 -1.32941 0
M  V30 461 H 37.9387 -3.29284 -3.80238 0
M  V30 462 H 37.6387 -4.93719 -3.18615 0
M  V30 463 H 39.1627 -4.57402 -4.04495 0
M  V30 464 H 40.5767 -5.39888 -1.92857 0
M  V30 465 H 38.9737 -5.86144 -1.28669 0
M  V30 466 H 40.0437 -4.83904 -0.310561 0
M  V30 467 N 41.3868 0.248026 -1.55636 0
M  V30 468 C 42.6118 0.998028 -1.81808 0
M  V30 469 C 43.0368 1.78207 -0.601979 0
M  V30 470 O 42.3948 1.75653 0.448961 0
M  V30 471 C 42.4428 1.9125 -3.05705 0
M  V30 472 O 41.5468 3.00406 -2.82542 0
M  V30 473 H 40.8878 0.284045 -0.600179 0
M  V30 474 H 43.4178 0.269357 -2.02819 0
M  V30 475 H 43.4278 2.32737 -3.35108 0
M  V30 476 H 42.1028 1.33602 -3.93857 0
M  V30 477 H 40.6798 2.63056 -2.64303 0
M  V30 478 N 42.8649 1.48995 0.513639 0
M  V30 479 C 43.8119 1.6473 1.61656 0
M  V30 480 C 44.7819 0.488984 1.58739 0
M  V30 481 O 45.9669 0.714478 1.76918 0
M  V30 482 C 43.1069 1.7082 2.99858 0
M  V30 483 C 42.2199 2.9787 3.12885 0
M  V30 484 C 41.3549 2.95017 4.41744 0
M  V30 485 C 40.3939 4.16702 4.48359 0
M  V30 486 N 39.5309 4.11832 5.68629 0
M  V30 487 H 44.3709 2.58909 1.47547 0
M  V30 488 H 41.9079 1.28382 0.71808 0
M  V30 489 H 43.8659 1.72331 3.79944 0
M  V30 490 H 42.4959 0.801181 3.12699 0
M  V30 491 H 41.5479 3.06029 2.25944 0
M  V30 492 H 42.8599 3.8786 3.13633 0
M  V30 493 H 42.0139 2.95021 5.30139 0
M  V30 494 H 40.7529 2.02784 4.43542 0
M  V30 495 H 39.7579 4.16955 3.58369 0
M  V30 496 H 40.9829 5.10113 4.48287 0
M  V30 497 H 38.9289 3.22428 5.71293 0
M  V30 498 H 38.8459 4.95543 5.7094 0
M  V30 499 H 40.1139 4.1592 6.59266 0
M  V30 500 N 44.343 -0.763751 1.37857 0
M  V30 501 C 45.591 -1.51957 1.33243 0
M  V30 502 C 45.912 -1.94835 -0.0801709 0
M  V30 503 O 45.182 -1.66894 -1.02582 0
M  V30 504 H 43.762 -0.563626 0.49024 0
M  V30 505 H 46.424 -0.908504 1.7243 0
M  V30 506 H 45.52 -2.41523 1.97669 0
M  V30 507 N 45.8211 -1.22559 -0.990812 0
M  V30 508 C 46.7311 -1.01394 -2.11557 0
M  V30 509 C 47.7471 0.0383962 -1.73958 0
M  V30 510 O 48.9231 -0.154787 -2.00804 0
M  V30 511 C 45.9881 -0.596569 -3.41529 0
M  V30 512 C 45.0491 -1.72276 -3.93217 0
M  V30 513 C 44.2821 -1.32521 -5.16985 0
M  V30 514 O 44.5051 -0.204909 -5.70032 0
M  V30 515 O 43.4391 -2.14247 -5.62478 0
M  V30 516 H 47.2651 -1.95633 -2.32296 0
M  V30 517 H 44.8501 -1.01172 -1.0993 0
M  V30 518 H 46.7321 -0.374263 -4.19735 0
M  V30 519 H 45.4071 0.316939 -3.22145 0
M  V30 520 H 44.3141 -1.99961 -3.16174 0
M  V30 521 H 45.6471 -2.61421 -4.17037 0
M  V30 522 N 47.2992 1.18797 -1.03562 0
M  V30 523 C 48.2292 2.24472 -0.643019 0
M  V30 524 C 49.2102 1.66433 0.351283 0
M  V30 525 O 50.3952 1.92803 0.232505 0
M  V30 526 C 47.5252 3.473 4.24935e-05 0
M  V30 527 C 46.4792 4.18055 -0.917257 0
M  V30 528 C 45.8052 5.34519 -0.138941 0
M  V30 529 C 47.1052 4.72109 -2.23407 0
M  V30 530 H 48.7992 2.57566 -1.52643 0
M  V30 531 H 46.3452 1.23806 -0.735394 0
M  V30 532 H 48.2982 4.20426 0.286383 0
M  V30 533 H 47.0222 3.13424 0.918299 0
M  V30 534 H 45.6812 3.46821 -1.1879 0
M  V30 535 H 45.3292 4.96891 0.781562 0
M  V30 536 H 45.0292 5.82794 -0.750005 0
M  V30 537 H 46.5532 6.10438 0.1405 0
M  V30 538 H 47.9672 5.36955 -2.00879 0
M  V30 539 H 46.3642 5.30897 -2.79765 0
M  V30 540 H 47.4342 3.89807 -2.88407 0
M  V30 541 N 48.7773 0.814389 1.34928 0
M  V30 542 C 49.7243 0.22822 2.29669 0
M  V30 543 C 50.6943 -0.642164 1.53184 0
M  V30 544 O 51.8793 -0.585605 1.81591 0
M  V30 545 C 49.0193 -0.61089 3.3965 0
M  V30 546 C 48.1323 0.280792 4.31086 0
M  V30 547 C 47.2673 -0.567067 5.28165 0
M  V30 548 C 46.3063 0.324531 6.11239 0
M  V30 549 N 45.4433 -0.483756 7.00431 0
M  V30 550 H 50.2833 1.04153 2.79206 0
M  V30 551 H 47.8203 0.525133 1.37407 0
M  V30 552 H 49.7783 -1.11263 4.0209 0
M  V30 553 H 48.4083 -1.38939 2.91369 0
M  V30 554 H 47.4603 0.900688 3.69583 0
M  V30 555 H 48.7723 0.966723 4.89342 0
M  V30 556 H 47.9263 -1.13363 5.96015 0
M  V30 557 H 46.6653 -1.28654 4.70425 0
M  V30 558 H 45.6703 0.903298 5.42329 0
M  V30 559 H 46.8953 1.04198 6.71059 0
M  V30 560 H 44.8413 -1.18706 6.45171 0
M  V30 561 H 44.7583 0.143965 7.55863 0
M  V30 562 H 46.0263 -1.03334 7.7262 0
M  V30 563 N 50.2554 -1.46986 0.568584 0
M  V30 564 C 51.1874 -2.28233 -0.210337 0
M  V30 565 C 52.2004 -1.37682 -0.868767 0
M  V30 566 O 53.3894 -1.62406 -0.740705 0
M  V30 567 C 50.4894 -3.12293 -1.3163 0
M  V30 568 C 49.6624 -4.30878 -0.7525 0
M  V30 569 C 48.7214 -4.96445 -1.74439 0
M  V30 570 O 47.7474 -5.54482 -1.286 0
M  V30 571 N 48.9494 -4.92171 -3.07812 0
M  V30 572 H 51.7144 -2.95723 0.486648 0
M  V30 573 H 49.2754 -1.56742 0.405409 0
M  V30 574 H 51.2674 -3.53022 -1.97883 0
M  V30 575 H 49.8374 -2.46971 -1.91636 0
M  V30 576 H 49.0574 -3.94104 0.0871128 0
M  V30 577 H 50.3454 -5.07558 -0.35536 0
M  V30 578 H 49.7434 -4.46239 -3.47688 0
M  V30 579 H 48.3004 -5.36884 -3.69592 0
M  V30 580 N 51.7335 -0.305618 -1.54608 0
M  V30 581 C 52.6635 0.561482 -2.26649 0
M  V30 582 C 53.6445 1.13415 -1.26772 0
M  V30 583 O 54.8295 1.16262 -1.55553 0
M  V30 584 C 51.9595 1.73122 -3.01075 0
M  V30 585 C 50.9135 1.2887 -4.08138 0
M  V30 586 C 50.2395 2.54396 -4.70305 0
M  V30 587 C 51.5395 0.416578 -5.20636 0
M  V30 588 H 53.2335 -0.0393902 -2.99374 0
M  V30 589 H 50.7795 -0.020385 -1.43986 0
M  V30 590 H 52.7325 2.34396 -3.50195 0
M  V30 591 H 51.4565 2.3584 -2.25936 0
M  V30 592 H 50.1155 0.698991 -3.59875 0
M  V30 593 H 49.7635 3.15439 -3.918 0
M  V30 594 H 49.4635 2.25486 -5.42614 0
M  V30 595 H 50.9875 3.16464 -5.2219 0
M  V30 596 H 52.4015 0.935116 -5.65622 0
M  V30 597 H 50.7985 0.221046 -5.99693 0
M  V30 598 H 51.8685 -0.557162 -4.81688 0
M  V30 599 N 53.2116 1.57565 -0.0334293 0
M  V30 600 C 54.1416 2.13511 0.945265 0
M  V30 601 C 55.1226 1.05231 1.33643 0
M  V30 602 O 56.3076 1.33084 1.41429 0
M  V30 603 C 53.4376 2.6657 2.22616 0
M  V30 604 C 52.3916 3.79676 1.97561 0
M  V30 605 C 51.7176 4.1918 3.31952 0
M  V30 606 C 53.0176 5.0557 1.31135 0
M  V30 607 H 54.7116 2.95538 0.479325 0
M  V30 608 H 52.2576 1.42166 0.229115 0
M  V30 609 H 54.2106 3.04344 2.91466 0
M  V30 610 H 52.9346 1.8171 2.71384 0
M  V30 611 H 51.5936 3.42347 1.31127 0
M  V30 612 H 51.2416 3.31296 3.78487 0
M  V30 613 H 50.9416 4.95402 3.15992 0
M  V30 614 H 52.4656 4.59541 4.02063 0
M  V30 615 H 53.8796 5.40903 1.89992 0
M  V30 616 H 52.2766 5.86818 1.25559 0
M  V30 617 H 53.3466 4.84062 0.284894 0
M  V30 618 N 54.6897 -0.239769 1.55765 0
M  V30 619 C 55.9177 -0.98417 1.81994 0
M  V30 620 C 56.3327 -1.7867 0.610124 0
M  V30 621 O 55.6897 -1.77571 -0.421271 0
M  V30 622 C 55.7407 -1.91635 3.06526 0
M  V30 623 O 55.4617 -1.14629 4.22838 0
M  V30 624 C 56.9627 -2.77616 3.45607 0
M  V30 625 H 54.1827 -0.28928 0.605441 0
M  V30 626 H 56.7267 -0.260499 2.02834 0
M  V30 627 H 54.8817 -2.5942 2.87715 0
M  V30 628 H 55.2957 -1.77745 4.93464 0
M  V30 629 H 56.7697 -3.38759 4.35828 0
M  V30 630 H 57.2467 -3.4909 2.6652 0
M  V30 631 H 57.8527 -2.15271 3.66795 0
M  V30 632 N 56.1678 -1.49265 -0.50573 0
M  V30 633 C 57.1148 -1.65585 -1.6078 0
M  V30 634 C 58.0848 -0.497396 -1.58478 0
M  V30 635 O 59.2698 -0.72385 -1.76536 0
M  V30 636 C 56.4098 -1.72408 -2.98948 0
M  V30 637 C 55.5228 -2.99525 -3.11301 0
M  V30 638 C 54.6578 -2.97356 -4.40174 0
M  V30 639 C 53.6968 -4.19074 -4.46143 0
M  V30 640 N 52.8338 -4.14841 -5.66437 0
M  V30 641 H 57.6738 -2.59688 -1.46172 0
M  V30 642 H 55.2108 -1.28761 -0.711261 0
M  V30 643 H 57.1688 -1.74344 -3.79025 0
M  V30 644 H 55.7988 -0.817753 -3.1227 0
M  V30 645 H 54.8508 -3.07222 -2.24318 0
M  V30 646 H 56.1628 -3.89518 -3.11572 0
M  V30 647 H 55.3168 -2.97829 -5.28567 0
M  V30 648 H 54.0558 -2.05133 -4.42461 0
M  V30 649 H 53.0608 -4.1885 -3.56153 0
M  V30 650 H 54.2858 -5.12483 -4.45575 0
M  V30 651 H 52.2318 -3.25453 -5.69575 0
M  V30 652 H 52.1488 -4.98564 -5.68304 0
M  V30 653 H 53.4168 -4.1941 -6.57051 0
M  V30 654 N 57.6459 0.756429 -1.3826 0
M  V30 655 C 58.5559 1.9009 -1.37488 0
M  V30 656 C 59.5719 1.71855 -0.272366 0
M  V30 657 O 60.7479 1.94827 -0.510318 0
M  V30 658 C 57.8129 3.25421 -1.19592 0
M  V30 659 C 56.8739 3.56202 -2.39622 0
M  V30 660 C 56.1069 4.85075 -2.2257 0
M  V30 661 O 56.3299 5.57246 -1.21793 0
M  V30 662 O 55.2639 5.15269 -3.11098 0
M  V30 663 H 59.0899 1.93695 -2.33914 0
M  V30 664 H 56.6749 0.901313 -1.1915 0
M  V30 665 H 58.5569 4.06337 -1.11661 0
M  V30 666 H 57.2319 3.22634 -0.262486 0
M  V30 667 H 56.1389 2.75458 -2.53128 0
M  V30 668 H 57.4719 3.63747 -3.31586 0
M  V30 669 N 59.124 1.23083 0.984299 0
M  V30 670 C 60.054 1.03292 2.09411 0
M  V30 671 C 61.035 -0.048923 1.7003 0
M  V30 672 O 62.22 0.114967 1.93859 0
M  V30 673 C 59.35 0.619155 3.41736 0
M  V30 674 C 58.304 1.64791 3.95004 0
M  V30 675 C 57.63 1.0897 5.23478 0
M  V30 676 C 58.93 3.03999 4.24714 0
M  V30 677 H 60.624 1.96119 2.26225 0
M  V30 678 H 58.17 0.944344 1.08711 0
M  V30 679 H 60.123 0.467777 4.18796 0
M  V30 680 H 58.847 -0.344786 3.24775 0
M  V30 681 H 57.506 1.78721 3.20085 0
M  V30 682 H 57.154 0.11686 5.02864 0
M  V30 683 H 56.854 1.77704 5.60085 0
M  V30 684 H 58.378 0.950093 6.03163 0
M  V30 685 H 59.792 2.93393 4.92538 0
M  V30 686 H 58.189 3.69936 4.72512 0
M  V30 687 H 59.259 3.53285 3.32142 0
M  V30 688 N 60.6021 -1.18246 1.0419 0
M  V30 689 C 61.5651 -2.20128 0.638452 0
M  V30 690 C 62.5651 -1.57885 -0.304805 0
M  V30 691 O 63.7551 -1.73967 -0.0900369 0
M  V30 692 C 60.8871 -3.4084 -0.0637751 0
M  V30 693 H 62.0801 -2.57336 1.54007 0
M  V30 694 H 59.6331 -1.32152 0.834598 0
M  V30 695 H 60.3681 -3.09166 -0.979136 0
M  V30 696 H 60.1531 -3.8726 0.614198 0
M  V30 697 H 61.6431 -4.16274 -0.332512 0
M  V30 698 N 62.0802 -0.821533 -1.34494 0
M  V30 699 C 63.0282 -0.230702 -2.31453 0
M  V30 700 C 64.0222 0.627793 -1.57338 0
M  V30 701 O 65.2282 0.519288 -1.72347 0
M  V30 702 H 61.6032 -0.0558577 -0.749923 0
M  V30 703 H 63.5742 -1.06332 -2.78812 0
M  V30 704 C 62.3232 0.59391 -3.4259 0
M  V30 705 H 61.6462 -0.0573588 -3.99759 0
M  V30 706 H 63.0862 0.973446 -4.12674 0
M  V30 707 C 61.5452 1.76568 -2.86924 0
M  V30 708 O 62.0752 2.8638 -2.81691 0
M  V30 709 N 60.2812 1.58198 -2.43766 0
M  V30 710 H 59.8282 0.68872 -2.48222 0
M  V30 711 H 59.7862 2.36752 -2.06871 0
M  V30 712 N 63.5583 1.46682 -0.576371 0
M  V30 713 C 64.7863 2.06798 -0.0649635 0
M  V30 714 C 65.2013 1.42612 1.23723 0
M  V30 715 O 64.5583 0.529203 1.74659 0
M  V30 716 C 64.6093 3.6132 0.114202 0
M  V30 717 O 64.3303 4.23104 -1.13644 0
M  V30 718 C 65.8313 4.38349 0.66069 0
M  V30 719 H 63.0513 0.668778 -0.0545616 0
M  V30 720 H 65.5953 1.88404 -0.795237 0
M  V30 721 H 63.7503 3.79162 0.794673 0
M  V30 722 H 64.1643 5.15894 -0.946253 0
M  V30 723 H 65.6383 5.47081 0.73526 0
M  V30 724 H 66.1153 4.05953 1.67627 0
M  V30 725 H 66.7213 4.25297 0.0152951 0
M  V30 726 N 65.0364 0.313813 1.54444 0
M  V30 727 C 66.2854 -0.292519 1.99568 0
M  V30 728 C 66.5984 -1.54011 1.20582 0
M  V30 729 O 67.8044 -2.22183 1.56035 0
M  V30 730 C 66.2604 -0.571752 3.55329 0
M  V30 731 C 65.8684 0.658229 4.43138 0
M  V30 732 C 67.6124 -1.13857 4.08946 0
M  V30 733 C 65.5194 0.351439 5.90355 0
M  V30 734 H 64.4494 -0.113079 0.745472 0
M  V30 735 H 67.1004 0.424518 1.78522 0
M  V30 736 H 65.4824 -1.34872 3.72325 0
M  V30 737 H 66.6564 1.43403 4.37918 0
M  V30 738 H 64.9714 1.14458 4.0036 0
M  V30 739 H 67.5684 -1.38257 5.16516 0
M  V30 740 H 67.9114 -2.08489 3.6033 0
M  V30 741 H 68.4444 -0.423015 3.95544 0
M  V30 742 H 65.1834 1.26667 6.43145 0
M  V30 743 H 64.7034 -0.386842 5.98551 0
M  V30 744 H 66.3824 -0.0423134 6.46986 0
M  V30 745 N 66.5145 -1.57545 0.0417849 0
M  V30 746 C 67.4615 -2.10977 -0.935805 0
M  V30 747 C 68.4315 -1.01486 -1.31491 0
M  V30 748 O 69.6165 -1.2898 -1.40602 0
M  V30 749 C 66.7565 -2.65169 -2.2086 0
M  V30 750 C 65.8695 -3.88714 -1.88482 0
M  V30 751 C 65.0045 -4.31254 -3.1015 0
M  V30 752 C 64.0435 -5.47524 -2.7365 0
M  V30 753 N 63.1805 -5.85162 -3.87982 0
M  V30 754 H 68.0205 -2.94218 -0.473249 0
M  V30 755 H 65.5575 -1.45415 -0.221981 0
M  V30 756 H 67.5155 -2.94685 -2.95325 0
M  V30 757 H 66.1455 -1.8474 -2.64709 0
M  V30 758 H 65.1975 -3.65849 -1.04205 0
M  V30 759 H 66.5095 -4.73245 -1.57608 0
M  V30 760 H 65.6635 -4.62273 -3.92923 0
M  V30 761 H 64.4025 -3.45516 -3.44195 0
M  V30 762 H 63.4075 -5.16187 -1.89291 0
M  V30 763 H 64.6325 -6.34971 -2.40807 0
M  V30 764 H 62.5785 -5.02377 -4.21846 0
M  V30 765 H 62.4955 -6.64362 -3.60775 0
M  V30 766 H 63.7635 -6.20791 -4.71422 0
M  V30 767 N 67.9926 0.231505 -1.5589 0
M  V30 768 C 68.9406 1.30649 -1.92441 0
M  V30 769 C 69.9346 1.49037 -0.805254 0
M  V30 770 O 71.1406 1.50329 -0.990007 0
M  V30 771 H 67.5156 0.437812 -0.611412 0
M  V30 772 H 69.4866 0.970973 -2.82161 0
M  V30 773 C 68.2356 2.65179 -2.24889 0
M  V30 774 H 67.5586 2.51835 -3.10514 0
M  V30 775 H 68.9986 3.39234 -2.54355 0
M  V30 776 C 67.4576 3.19439 -1.07054 0
M  V30 777 O 67.9876 4.00371 -0.326499 0
M  V30 778 N 66.1936 2.77675 -0.85703 0
M  V30 779 H 65.7406 2.11969 -1.46379 0
M  V30 780 H 65.6986 3.14321 -0.0703223 0
M  V30 781 N 69.4707 1.49531 0.497807 0
M  V30 782 C 70.7197 1.58426 1.24837 0
M  V30 783 C 71.0327 0.277643 1.93619 0
M  V30 784 O 72.2387 0.24517 2.70391 0
M  V30 785 C 70.6947 2.79538 2.26686 0
M  V30 786 C 70.3027 4.16971 1.63828 0
M  V30 787 C 72.0467 2.97764 3.0255 0
M  V30 788 C 69.9537 5.29301 2.63807 0
M  V30 789 H 68.8837 0.58989 0.469623 0
M  V30 790 H 71.5347 1.75923 0.521857 0
M  V30 791 H 69.9167 2.55542 3.02514 0
M  V30 792 H 71.0907 4.51116 0.939711 0
M  V30 793 H 69.4057 4.04129 1.00342 0
M  V30 794 H 72.0027 3.78856 3.77323 0
M  V30 795 H 72.3457 2.08448 3.60354 0
M  V30 796 H 72.8787 3.21815 2.33838 0
M  V30 797 H 69.6177 6.20687 2.10779 0
M  V30 798 H 69.1377 4.99606 3.31894 0
M  V30 799 H 70.8167 5.58768 3.2617 0
M  V30 800 N 70.9488 -0.749086 1.3866 0
M  V30 801 C 71.8958 -1.86291 1.36251 0
M  V30 802 C 72.8658 -1.64578 0.224347 0
M  V30 803 O 74.0508 -1.86181 0.417279 0
M  V30 804 C 71.1908 -3.23644 1.19786 0
M  V30 805 C 70.3038 -3.57158 2.43027 0
M  V30 806 C 69.4388 -4.83838 2.19258 0
M  V30 807 C 68.4778 -5.10152 3.38247 0
M  V30 808 N 67.6148 -6.28029 3.13884 0
M  V30 809 H 72.4548 -1.87685 2.3147 0
M  V30 810 H 69.9918 -0.917287 1.14997 0
M  V30 811 H 71.9498 -4.0291 1.08254 0
M  V30 812 H 70.5798 -3.21566 0.282031 0
M  V30 813 H 69.6318 -2.72701 2.65214 0
M  V30 814 H 70.9438 -3.7253 3.31697 0
M  V30 815 H 70.0978 -5.71057 2.04888 0
M  V30 816 H 68.8368 -4.70614 1.2796 0
M  V30 817 H 67.8418 -4.21401 3.53131 0
M  V30 818 H 69.0668 -5.25271 4.30427 0
M  V30 819 H 67.0128 -6.1612 2.25238 0
M  V30 820 H 66.9298 -6.43922 3.96106 0
M  V30 821 H 68.1978 -7.18124 3.03179 0
M  V30 822 N 72.4269 -1.23603 -0.977757 0
M  V30 823 C 73.7039 -0.977897 -1.69401 0
M  V30 824 C 74.0839 0.502738 -2.05026 0
M  V30 825 O 73.4319 1.47459 -1.74551 0
M  V30 826 C 73.6419 -1.89077 -2.93345 0
M  V30 827 C 74.9899 -2.15579 -3.65802 0
M  V30 828 O 76.0139 -1.86648 -3.03383 0
M  V30 829 O 74.8729 -2.64658 -4.78141 0
M  V30 830 H 71.9669 -0.369025 -0.740101 0
M  V30 831 H 74.5129 -1.34657 -1.03274 0
M  V30 832 H 73.2849 -2.89158 -2.63634 0
M  V30 833 H 72.9079 -1.52463 -3.67207 0
M  V30 834 N 73.905 1.17692 -1.04816 0
M  V30 835 C 74.852 2.21581 -0.645797 0
M  V30 836 C 75.822 1.62367 0.350159 0
M  V30 837 O 77.007 1.89254 0.242433 0
M  V30 838 C 74.147 3.45092 -0.0227568 0
M  V30 839 C 73.26 4.18613 -1.06709 0
M  V30 840 C 72.395 5.29602 -0.411767 0
M  V30 841 C 71.434 5.94904 -1.44067 0
M  V30 842 N 70.571 6.97414 -0.809781 0
M  V30 843 H 75.411 2.55353 -1.5362 0
M  V30 844 H 72.948 1.25438 -0.768364 0
M  V30 845 H 74.906 4.15679 0.35588 0
M  V30 846 H 73.536 3.11917 0.831122 0
M  V30 847 H 72.588 3.46779 -1.5636 0
M  V30 848 H 73.9 4.63293 -1.84827 0
M  V30 849 H 73.054 6.06696 0.0206623 0
M  V30 850 H 71.793 4.86045 0.401438 0
M  V30 851 H 70.798 5.16544 -1.88316 0
M  V30 852 H 72.023 6.40542 -2.25571 0
M  V30 853 H 69.969 6.55998 -0.0170186 0
M  V30 854 H 69.886 7.40386 -1.52856 0
M  V30 855 H 71.154 7.78463 -0.401999 0
M  V30 856 N 75.3831 0.828654 1.34056 0
M  V30 857 C 76.3461 0.259927 2.27721 0
M  V30 858 C 77.3461 -0.565478 1.50529 0
M  V30 859 O 78.5361 -0.38075 1.69988 0
M  V30 860 C 75.6681 -0.634944 3.34935 0
M  V30 861 H 76.8611 1.0863 2.79534 0
M  V30 862 H 74.4141 0.600951 1.44285 0
M  V30 863 H 75.1491 -1.48416 2.88346 0
M  V30 864 H 74.9341 -0.0444999 3.92075 0
M  V30 865 H 76.4241 -1.02648 4.04788 0
M  V30 866 N 76.8612 -1.46375 0.584142 0
M  V30 867 C 78.1072 -2.02678 0.0703716 0
M  V30 868 C 78.4402 -1.4545 -1.28678 0
M  V30 869 O 77.7152 -0.62014 -1.84349 0
M  V30 870 C 77.9982 -3.60099 0.00614674 0
M  V30 871 C 77.8512 -4.27709 1.3923 0
M  V30 872 C 79.1702 -4.34598 -0.693742 0
M  V30 873 H 76.2892 -0.736504 0.027047 0
M  V30 874 H 78.9312 -1.74501 0.751615 0
M  V30 875 H 77.0812 -3.84236 -0.574009 0
M  V30 876 H 78.7532 -4.14832 2.01773 0
M  V30 877 H 76.9962 -3.87016 1.95962 0
M  V30 878 H 77.6672 -5.36478 1.29982 0
M  V30 879 H 80.1432 -4.15615 -0.200869 0
M  V30 880 H 79.0192 -5.44318 -0.707714 0
M  V30 881 H 79.2802 -4.05759 -1.75533 0
M  V30 882 N 78.3393 -0.321999 -1.54275 0
M  V30 883 C 79.5883 0.281931 -1.9972 0
M  V30 884 C 79.9013 1.53369 -1.21397 0
M  V30 885 O 81.1073 2.21352 -1.57211 0
M  V30 886 C 79.5633 0.5529 -3.55628 0
M  V30 887 C 79.1713 -0.681721 -4.42783 0
M  V30 888 C 80.9153 1.11687 -4.09544 0
M  V30 889 C 78.8223 -0.382742 -5.9016 0
M  V30 890 H 77.7523 0.109124 -0.746062 0
M  V30 891 H 80.4033 -0.43398 -1.78294 0
M  V30 892 H 78.7853 1.32896 -3.73035 0
M  V30 893 H 79.9593 -1.45723 -4.37151 0
M  V30 894 H 78.2743 -1.1658 -3.99748 0
M  V30 895 H 80.8713 1.35515 -5.17242 0
M  V30 896 H 81.2143 2.06575 -3.61431 0
M  V30 897 H 81.7473 0.402032 -3.95763 0
M  V30 898 H 78.4863 -1.30076 -6.42464 0
M  V30 899 H 78.0063 0.355094 -5.98748 0
M  V30 900 H 79.6853 0.00800157 -6.47 0
M  V30 901 N 79.8174 1.5752 -0.0501392 0
M  V30 902 C 81.0944 1.83996 0.663685 0
M  V30 903 C 81.4744 0.938339 1.89099 0
M  V30 904 O 80.8224 -0.00087759 2.285 0
M  V30 905 C 81.0324 3.33702 1.02196 0
M  V30 906 C 82.3804 4.00691 1.40469 0
M  V30 907 O 83.4044 3.38321 1.11433 0
M  V30 908 O 82.2634 5.10658 1.94654 0
M  V30 909 H 79.3574 0.759385 0.32751 0
M  V30 910 H 81.9034 1.69514 -0.0794238 0
M  V30 911 H 80.6754 3.91015 0.149364 0
M  V30 912 H 80.2984 3.53368 1.82255 0
M  V30 913 N 81.2955 -0.223234 1.56011 0
M  V30 914 C 82.2055 -1.29766 1.95443 0
M  V30 915 C 83.2215 -1.51373 0.858028 0
M  V30 916 O 84.3975 -1.64536 1.16146 0
M  V30 917 C 81.4625 -2.62772 2.26167 0
M  V30 918 C 80.5235 -2.49482 3.49367 0
M  V30 919 C 79.7565 -3.76145 3.78616 0
M  V30 920 O 79.9795 -4.79087 3.09568 0
M  V30 921 O 78.9135 -3.73358 4.72109 0
M  V30 922 H 82.7395 -0.99309 2.87004 0
M  V30 923 H 80.3245 -0.425958 1.43199 0
M  V30 924 H 82.2065 -3.41327 2.47131 0
M  V30 925 H 80.8815 -2.92913 1.37781 0
M  V30 926 H 79.7885 -1.69133 3.33684 0
M  V30 927 H 81.1215 -2.2428 4.38131 0
M  V30 928 N 82.7736 -1.49793 -0.48987 0
M  V30 929 C 84.0226 -1.59085 -1.23995 0
M  V30 930 C 84.3356 -0.287907 -1.9347 0
M  V30 931 O 85.5416 -0.259506 -2.70257 0
M  V30 932 C 83.9976 -2.80736 -2.252 0
M  V30 933 C 83.6056 -4.17833 -1.61614 0
M  V30 934 C 85.3496 -2.99364 -3.00967 0
M  V30 935 C 83.2566 -5.30693 -2.60996 0
M  V30 936 H 82.1866 -0.592372 -0.466488 0
M  V30 937 H 84.8376 -1.76197 -0.51252 0
M  V30 938 H 83.2196 -2.57142 -3.01154 0
M  V30 939 H 84.3936 -4.51608 -0.915774 0
M  V30 940 H 82.7086 -4.04656 -0.981977 0
M  V30 941 H 85.3056 -3.80851 -3.75308 0
M  V30 942 H 85.6486 -2.10356 -3.59244 0
M  V30 943 H 86.1816 -3.2305 -2.32128 0
M  V30 944 H 82.9206 -6.21796 -2.07485 0
M  V30 945 H 82.4406 -5.01359 -3.2924 0
M  V30 946 H 84.1196 -5.6049 -3.23202 0
M  V30 947 N 84.2517 0.741722 -1.39055 0
M  V30 948 C 85.4987 1.50114 -1.35912 0
M  V30 949 C 85.8267 1.94443 0.0470937 0
M  V30 950 O 85.0817 1.66612 1.02659 0
M  V30 951 C 85.3807 2.7592 -2.27163 0
M  V30 952 C 85.0467 2.50493 -3.74919 0
M  V30 953 C 83.7087 2.43267 -4.1518 0
M  V30 954 C 86.0607 2.28585 -4.684 0
M  V30 955 C 83.3887 2.12166 -5.46994 0
M  V30 956 C 85.7407 1.99002 -6.00484 0
M  V30 957 C 84.4047 1.90241 -6.39816 0
M  V30 958 H 83.6747 0.549306 -0.497336 0
M  V30 959 H 86.3217 0.851896 -1.71508 0
M  V30 960 H 84.6267 3.45553 -1.84663 0
M  V30 961 H 86.3237 3.33923 -2.22028 0
M  V30 962 H 82.9137 2.56992 -3.43006 0
M  V30 963 H 87.0977 2.33139 -4.38132 0
M  V30 964 H 82.3537 2.03901 -5.76398 0
M  V30 965 H 86.5277 1.81057 -6.72452 0
M  V30 966 H 84.1547 1.65907 -7.41875 0
M  V30 967 N 85.7298 1.2412 0.971189 0
M  V30 968 C 86.6618 0.988349 2.06795 0
M  V30 969 C 87.6748 -0.0409541 1.62748 0
M  V30 970 O 88.8638 0.195673 1.77424 0
M  V30 971 C 85.9638 0.469023 3.35639 0
M  V30 972 C 85.1368 1.56065 4.08611 0
M  V30 973 C 84.1958 1.04458 5.15728 0
M  V30 974 O 83.2218 1.73553 5.42096 0
M  V30 975 N 84.4238 -0.122817 5.8037 0
M  V30 976 H 87.1888 1.93265 2.29061 0
M  V30 977 H 84.7498 1.15102 1.13856 0
M  V30 978 H 86.7418 0.108613 4.04554 0
M  V30 979 H 85.3118 -0.380919 3.1027 0
M  V30 980 H 84.5318 2.09341 3.34021 0
M  V30 981 H 85.8198 2.29449 4.54126 0
M  V30 982 H 85.2178 -0.700563 5.61345 0
M  V30 983 H 83.7748 -0.424404 6.50417 0
M  V30 984 N 87.2079 -1.17134 1.05439 0
M  V30 985 C 88.4559 -1.87085 0.764429 0
M  V30 986 C 88.7769 -1.81584 -0.710787 0
M  V30 987 O 88.0469 -1.24349 -1.51374 0
M  V30 988 H 86.6269 -0.692627 0.279779 0
M  V30 989 H 89.2889 -1.42087 1.33406 0
M  V30 990 H 88.3849 -2.92759 1.0816 0
M  V30 991 N 88.686 -0.835752 -1.33615 0
M  V30 992 C 89.616 -0.281739 -2.31794 0
M  V30 993 C 90.597 0.608833 -1.58831 0
M  V30 994 O 91.782 0.533035 -1.86741 0
M  V30 995 C 88.912 0.546612 -3.42971 0
M  V30 996 C 87.866 -0.247904 -4.27281 0
M  V30 997 C 87.192 0.704001 -5.30045 0
M  V30 998 C 88.492 -1.46324 -5.01385 0
M  V30 999 H 90.186 -1.10206 -2.78379 0
M  V30 1000 H 87.732 -0.531388 -1.33837 0
M  V30 1001 H 89.685 0.944467 -4.1068 0
M  V30 1002 H 88.409 1.40011 -2.95067 0
M  V30 1003 H 87.068 -0.627281 -3.61194 0
M  V30 1004 H 86.716 1.55381 -4.78399 0
M  V30 1005 H 86.416 0.176524 -5.87335 0
M  V30 1006 H 87.94 1.09944 -6.0062 0
M  V30 1007 H 89.354 -1.13871 -5.61877 0
M  V30 1008 H 87.751 -1.92728 -5.6831 0
M  V30 1009 H 88.821 -2.23467 -4.30338 0
M  V30 1010 N 90.1641 1.46063 -0.591896 0
M  V30 1011 C 91.4411 1.95595 -0.0137119 0
M  V30 1012 C 91.8211 1.5345 1.4497 0
M  V30 1013 O 91.1691 0.789543 2.14426 0
M  V30 1014 C 91.3791 3.48453 -0.195373 0
M  V30 1015 C 92.7271 4.24546 -0.0679765 0
M  V30 1016 O 93.7511 3.55982 -0.124681 0
M  V30 1017 O 92.6101 5.46467 0.0600579 0
M  V30 1018 H 89.7041 0.825795 0.0446279 0
M  V30 1019 H 92.2501 1.56303 -0.660859 0
M  V30 1020 H 91.0221 3.72045 -1.21235 0
M  V30 1021 H 90.6451 3.94597 0.487775 0
M  V30 1022 N 91.6422 0.330177 1.54103 0
M  V30 1023 C 92.6052 -0.520144 2.2322 0
M  V30 1024 C 93.6052 -1.03828 1.22786 0
M  V30 1025 O 94.7952 -0.929652 1.4732 0
M  V30 1026 C 91.9272 -1.72317 2.94142 0
M  V30 1027 H 93.1202 0.0841605 2.99782 0
M  V30 1028 H 90.6732 0.0813433 1.56088 0
M  V30 1029 H 91.4082 -2.36653 2.21734 0
M  V30 1030 H 91.1932 -1.35898 3.67796 0
M  V30 1031 H 92.6832 -2.3266 3.46784 0
M  V30 1032 N 93.1203 -1.57491 0.0584922 0
M  V30 1033 C 94.0683 -2.13148 -0.931168 0
M  V30 1034 C 95.0623 -1.06507 -1.31729 0
M  V30 1035 O 96.2683 -1.24906 -1.29609 0
M  V30 1036 H 92.6433 -0.68137 -0.31818 0
M  V30 1037 H 94.6143 -2.95187 -0.436707 0
M  V30 1038 C 93.3633 -2.69732 -2.19408 0
M  V30 1039 H 92.6863 -3.51454 -1.90578 0
M  V30 1040 H 94.1263 -3.12287 -2.86798 0
M  V30 1041 C 92.5853 -1.63855 -2.94369 0
M  V30 1042 O 93.1153 -1.05565 -3.87581 0
M  V30 1043 N 91.3213 -1.35202 -2.57233 0
M  V30 1044 H 90.8683 -1.82791 -1.81508 0
M  V30 1045 H 90.8263 -0.645922 -3.07693 0
M  V30 1046 N 94.5984 0.214957 -1.56127 0
M  V30 1047 C 95.5304 1.29004 -1.89448 0
M  V30 1048 C 96.5434 1.42716 -0.783326 0
M  V30 1049 O 97.7324 1.43496 -1.06166 0
M  V30 1050 C 94.8324 2.66482 -2.09381 0
M  V30 1051 C 94.0054 2.74633 -3.40434 0
M  V30 1052 C 93.0644 3.9317 -3.49719 0
M  V30 1053 O 92.0904 3.812 -4.227 0
M  V30 1054 N 93.2924 5.07765 -2.81346 0
M  V30 1055 H 96.0574 1.00743 -2.82261 0
M  V30 1056 H 93.6184 0.40497 -1.56753 0
M  V30 1057 H 95.6104 3.44173 -2.12901 0
M  V30 1058 H 94.1804 2.87314 -1.23163 0
M  V30 1059 H 93.4004 1.83368 -3.48955 0
M  V30 1060 H 94.6884 2.77054 -4.26754 0
M  V30 1061 H 94.0864 5.20386 -2.21843 0
M  V30 1062 H 92.6434 5.83474 -2.90519 0
M  V30 1063 N 96.0765 1.50051 0.48192 0
M  V30 1064 C 97.3535 1.51009 1.2432 0
M  V30 1065 C 97.7335 0.248587 2.09631 0
M  V30 1066 O 97.0815 -0.768409 2.15192 0
M  V30 1067 C 97.2915 2.79981 2.08355 0
M  V30 1068 C 98.6395 3.3022 2.66908 0
M  V30 1069 O 99.6635 2.81228 2.18607 0
M  V30 1070 O 98.5225 4.15595 3.54884 0
M  V30 1071 H 95.6165 0.605239 0.563573 0
M  V30 1072 H 98.1625 1.62332 0.494627 0
M  V30 1073 H 96.9345 3.63275 1.45419 0
M  V30 1074 H 96.5575 2.7161 2.90368 0
M  V30 1075 N 97.5546 -0.734337 1.39446 0
M  V30 1076 C 98.4646 -1.87879 1.40495 0
M  V30 1077 C 99.4806 -1.714 0.299672 0
M  V30 1078 O 100.657 -1.93991 0.541249 0
M  V30 1079 C 97.7216 -3.23477 1.24754 0
M  V30 1080 C 96.7826 -3.52344 2.45259 0
M  V30 1081 C 96.0156 -4.81473 2.30259 0
M  V30 1082 O 96.2386 -5.55237 1.30643 0
M  V30 1083 O 95.1726 -5.10254 3.19256 0
M  V30 1084 H 98.9986 -1.89949 2.36966 0
M  V30 1085 H 96.5836 -0.882243 1.20569 0
M  V30 1086 H 98.4656 -4.04509 1.18111 0
M  V30 1087 H 97.1406 -3.22176 0.313781 0
M  V30 1088 H 96.0476 -2.71396 2.57478 0
M  V30 1089 H 97.3806 -3.58426 3.37331 0
M  V30 1090 N 99.0327 -1.24633 -0.964593 0
M  V30 1091 C 99.9647 -0.999302 -2.06268 0
M  V30 1092 C 100.978 0.0323226 -1.62768 0
M  V30 1093 O 102.167 -0.205079 -1.77318 0
M  V30 1094 C 99.2667 -0.486816 -3.35385 0
M  V30 1095 C 98.4397 -1.5823 -4.07777 0
M  V30 1096 C 97.4987 -1.07191 -5.15166 0
M  V30 1097 O 96.5247 -1.76426 -5.41168 0
M  V30 1098 N 97.7267 0.0920373 -5.80427 0
M  V30 1099 H 100.492 -1.94477 -2.28033 0
M  V30 1100 H 98.0527 -1.15704 -1.13244 0
M  V30 1101 H 100.045 -0.130066 -4.04491 0
M  V30 1102 H 98.6147 0.364459 -3.10468 0
M  V30 1103 H 97.8347 -2.11109 -3.32906 0
M  V30 1104 H 99.1227 -2.31854 -4.52903 0
M  V30 1105 H 98.5207 0.670784 -5.61709 0
M  V30 1106 H 97.0777 0.389905 -6.50633 0
M  V30 1107 N 100.511 1.16574 -1.06058 0
M  V30 1108 C 101.757 1.87324 -0.777022 0
M  V30 1109 C 102.09 1.81351 0.694645 0
M  V30 1110 O 101.365 1.22753 1.50871 0
M  V30 1111 C 101.648 3.36991 -1.26922 0
M  V30 1112 C 101.501 3.51667 -2.80447 0
M  V30 1113 C 102.82 4.3131 -0.87521 0
M  V30 1114 H 99.9388 0.680191 -0.28374 0
M  V30 1115 H 102.581 1.37036 -1.3161 0
M  V30 1116 H 100.731 3.79949 -0.81063 0
M  V30 1117 H 102.403 3.17664 -3.34495 0
M  V30 1118 H 100.646 2.93656 -3.19294 0
M  V30 1119 H 101.317 4.56766 -3.0995 0
M  V30 1120 H 103.793 3.9624 -1.27014 0
M  V30 1121 H 102.669 5.34545 -1.2471 0
M  V30 1122 H 102.93 4.41552 0.220071 0
M  V30 1123 N 101.989 0.842826 1.3317 0
M  V30 1124 C 103.266 0.362216 1.92217 0
M  V30 1125 C 103.646 -1.15289 1.76838 0
M  V30 1126 O 102.994 -1.96914 1.15919 0
M  V30 1127 C 103.204 0.813495 3.39387 0
M  V30 1128 C 104.552 0.823804 4.16532 0
M  V30 1129 O 105.576 0.757358 3.48055 0
M  V30 1130 O 104.435 0.915193 5.38782 0
M  V30 1131 H 101.529 0.103317 0.820521 0
M  V30 1132 H 104.075 0.928942 1.42017 0
M  V30 1133 H 102.847 1.85624 3.4447 0
M  V30 1134 H 102.47 0.223561 3.96971 0
M  V30 1135 N 103.467 -1.45747 0.599634 0
M  V30 1136 C 104.714 -2.02292 0.0917284 0
M  V30 1137 C 105.042 -1.46906 -1.27472 0
M  V30 1138 O 104.297 -0.630652 -1.8526 0
M  V30 1139 C 104.596 -3.57399 -0.00602758 0
M  V30 1140 C 104.262 -4.31902 1.29503 0
M  V30 1141 C 102.924 -4.51974 1.65144 0
M  V30 1142 C 105.276 -4.74551 2.15525 0
M  V30 1143 C 102.604 -5.11949 2.86574 0
M  V30 1144 C 104.956 -5.35868 3.36196 0
M  V30 1145 C 103.62 -5.54165 3.72099 0
M  V30 1146 H 102.89 -0.740239 0.0335658 0
M  V30 1147 H 105.537 -1.7491 0.779661 0
M  V30 1148 H 103.842 -3.84014 -0.777183 0
M  V30 1149 H 105.539 -3.98846 -0.415038 0
M  V30 1150 H 102.129 -4.16588 1.00761 0
M  V30 1151 H 106.313 -4.58784 1.8929 0
M  V30 1152 H 101.569 -5.24305 3.14507 0
M  V30 1153 H 105.743 -5.6787 4.03109 0
M  V30 1154 H 103.37 -6.00406 4.6628 0
M  V30 1155 N 104.945 -0.338344 -1.53925 0
M  V30 1156 C 105.877 0.555117 -2.22376 0
M  V30 1157 C 106.89 1.06812 -1.22862 0
M  V30 1158 O 108.079 0.979163 -1.49247 0
M  V30 1159 C 105.179 1.77609 -2.88631 0
M  V30 1160 C 104.352 1.39927 -4.14414 0
M  V30 1161 C 103.411 2.47936 -4.64127 0
M  V30 1162 O 102.437 2.11461 -5.28463 0
M  V30 1163 N 103.639 3.79107 -4.39612 0
M  V30 1164 H 106.404 -0.0310778 -2.99684 0
M  V30 1165 H 103.965 -0.162226 -1.61085 0
M  V30 1166 H 105.957 2.49287 -3.18807 0
M  V30 1167 H 104.527 2.26978 -2.14941 0
M  V30 1168 H 103.747 0.513481 -3.90841 0
M  V30 1169 H 105.035 1.12341 -4.96243 0
M  V30 1170 H 104.433 4.11531 -3.88148 0
M  V30 1171 H 102.99 4.4697 -4.74406 0
M  V30 1172 N 106.423 1.57458 -0.0668435 0
M  V30 1173 C 107.333 2.15937 0.916975 0
M  V30 1174 C 108.349 1.12123 1.33058 0
M  V30 1175 O 109.525 1.44366 1.40429 0
M  V30 1176 C 106.59 2.70547 2.16807 0
M  V30 1177 C 105.651 3.89215 1.81135 0
M  V30 1178 C 104.884 4.41211 3.0028 0
M  V30 1179 O 105.107 3.92225 4.14144 0
M  V30 1180 O 104.041 5.32605 2.80384 0
M  V30 1181 H 107.867 3.00354 0.449561 0
M  V30 1182 H 105.452 1.48584 0.155949 0
M  V30 1183 H 107.334 3.0557 2.90181 0
M  V30 1184 H 106.009 1.89192 2.62656 0
M  V30 1185 H 104.916 3.59054 1.05028 0
M  V30 1186 H 106.249 4.71848 1.40073 0
M  V30 1187 N 107.901 -0.206675 1.56239 0
M  V30 1188 C 109.148 -0.928842 1.79941 0
M  V30 1189 C 109.476 -1.83734 0.638131 0
M  V30 1190 O 108.731 -1.92039 -0.376746 0
M  V30 1191 C 109.03 -1.78675 3.09532 0
M  V30 1192 C 108.696 -1.03022 4.38973 0
M  V30 1193 C 107.358 -0.821302 4.74139 0
M  V30 1194 C 109.71 -0.497081 5.18824 0
M  V30 1195 C 107.038 -0.0675719 5.86661 0
M  V30 1196 C 109.39 0.24338 6.32132 0
M  V30 1197 C 108.054 0.463422 6.65889 0
M  V30 1198 H 107.324 -0.339887 0.658451 0
M  V30 1199 H 109.971 -0.195977 1.90495 0
M  V30 1200 H 108.276 -2.58794 2.94165 0
M  V30 1201 H 109.973 -2.34792 3.25075 0
M  V30 1202 H 106.563 -1.20306 4.11369 0
M  V30 1203 H 110.747 -0.645921 4.92079 0
M  V30 1204 H 106.003 0.112995 6.11296 0
M  V30 1205 H 110.177 0.66393 6.93228 0
M  V30 1206 H 107.804 1.04938 7.52922 0
M  V30 1207 N 109.379 -1.50304 -0.473955 0
M  V30 1208 C 110.628 -1.60392 -1.22301 0
M  V30 1209 C 110.941 -0.308411 -1.93153 0
M  V30 1210 O 112.147 -0.288156 -2.69966 0
M  V30 1211 C 110.603 -2.83109 -2.2221 0
M  V30 1212 C 110.211 -4.19524 -1.57173 0
M  V30 1213 C 111.955 -3.0254 -2.97775 0
M  V30 1214 C 109.862 -5.33431 -2.55353 0
M  V30 1215 H 108.792 -0.597286 -0.460179 0
M  V30 1216 H 111.443 -1.76731 -0.493803 0
M  V30 1217 H 109.825 -2.60322 -2.9841 0
M  V30 1218 H 110.999 -4.52554 -0.867824 0
M  V30 1219 H 109.314 -4.05674 -0.939002 0
M  V30 1220 H 111.911 -3.84811 -3.71248 0
M  V30 1221 H 112.254 -2.14154 -3.56992 0
M  V30 1222 H 112.787 -3.25494 -2.28688 0
M  V30 1223 H 109.526 -6.23962 -2.00878 0
M  V30 1224 H 109.046 -5.04823 -3.23904 0
M  V30 1225 H 110.725 -5.63887 -3.17239 0
M  V30 1226 N 110.857 0.726932 -1.39834 0
M  V30 1227 C 112.082 1.52121 -1.40976 0
M  V30 1228 C 112.507 1.88098 -0.00826029 0
M  V30 1229 O 111.865 1.52479 0.980807 0
M  V30 1230 C 111.913 2.78021 -2.29644 0
M  V30 1231 O 111.017 3.74272 -1.73188 0
M  V30 1232 H 110.358 0.45908 -0.479731 0
M  V30 1233 H 112.888 0.896207 -1.83927 0
M  V30 1234 H 112.898 3.26671 -2.44438 0
M  V30 1235 H 111.573 2.51169 -3.31492 0
M  V30 1236 H 110.15 3.33073 -1.6768 0
M  V30 1237 N 112.336 1.25143 0.95797 0
M  V30 1238 C 113.266 1.07711 2.07173 0
M  V30 1239 C 114.247 -0.0128462 1.70095 0
M  V30 1240 O 115.432 0.156061 1.93572 0
M  V30 1241 C 112.562 0.691503 3.40346 0
M  V30 1242 C 111.516 1.73132 3.9142 0
M  V30 1243 C 110.842 1.20049 5.21049 0
M  V30 1244 C 112.142 3.1294 4.1817 0
M  V30 1245 H 113.836 2.00873 2.22014 0
M  V30 1246 H 111.382 0.967191 1.06684 0
M  V30 1247 H 113.335 0.556505 4.17709 0
M  V30 1248 H 112.059 -0.275819 3.25433 0
M  V30 1249 H 110.718 1.8547 3.16222 0
M  V30 1250 H 110.366 0.223499 5.02503 0
M  V30 1251 H 110.066 1.89545 5.56189 0
M  V30 1252 H 111.59 1.07782 6.01012 0
M  V30 1253 H 113.004 3.03775 4.86203 0
M  V30 1254 H 111.401 3.79875 4.64559 0
M  V30 1255 H 112.471 3.6025 3.24573 0
M  V30 1256 N 113.814 -1.1601 1.06675 0
M  V30 1257 C 115.06 -1.86909 0.786945 0
M  V30 1258 C 115.393 -1.81717 -0.685018 0
M  V30 1259 O 114.668 -1.23551 -1.50218 0
M  V30 1260 C 114.951 -3.36313 1.28707 0
M  V30 1261 C 114.804 -3.50175 2.82308 0
M  V30 1262 C 116.123 -4.3084 0.898071 0
M  V30 1263 H 113.242 -0.678677 0.287343 0
M  V30 1264 H 115.884 -1.36336 1.32334 0
M  V30 1265 H 114.034 -3.79513 0.830768 0
M  V30 1266 H 115.706 -3.15886 3.36175 0
M  V30 1267 H 113.949 -2.91959 3.20847 0
M  V30 1268 H 114.62 -4.55116 3.12368 0
M  V30 1269 H 117.096 -3.95561 1.29114 0
M  V30 1270 H 115.972 -5.33876 1.27543 0
M  V30 1271 H 116.233 -4.41662 -0.196651 0
M  V30 1272 N 115.292 -0.849877 -1.32721 0
M  V30 1273 C 116.255 -0.296122 -2.27279 0
M  V30 1274 C 117.255 0.541458 -1.5141 0
M  V30 1275 O 118.445 0.353658 -1.70572 0
M  V30 1276 C 115.577 0.581579 -3.35902 0
M  V30 1277 H 116.77 -1.13064 -2.77771 0
M  V30 1278 H 114.323 -0.62383 -1.43311 0
M  V30 1279 H 115.058 1.43809 -2.9067 0
M  V30 1280 H 114.843 -0.0178814 -3.92096 0
M  V30 1281 H 116.333 0.961951 -4.0637 0
M  V30 1282 N 116.77 1.45427 -0.607355 0
M  V30 1283 C 118.019 2.01452 -0.100036 0
M  V30 1284 C 118.332 1.48159 1.27704 0
M  V30 1285 O 119.538 1.96159 1.87707 0
M  V30 1286 C 117.994 3.59672 -0.128158 0
M  V30 1287 C 117.602 4.21962 -1.50507 0
M  V30 1288 C 119.346 4.23262 0.323932 0
M  V30 1289 C 117.253 5.72333 -1.48959 0
M  V30 1290 H 116.183 0.75325 -0.0336299 0
M  V30 1291 H 118.834 1.66901 -0.76265 0
M  V30 1292 H 117.216 3.91411 0.601105 0
M  V30 1293 H 118.39 4.01796 -2.25602 0
M  V30 1294 H 116.705 3.70565 -1.89923 0
M  V30 1295 H 119.302 5.33522 0.354691 0
M  V30 1296 H 119.645 3.93921 1.34656 0
M  V30 1297 H 120.178 3.96239 -0.352056 0
M  V30 1298 H 116.917 6.06373 -2.48981 0
M  V30 1299 H 116.437 5.94691 -0.781214 0
M  V30 1300 H 118.116 6.35525 -1.21313 0
M  V30 1301 N 118.248 0.346503 1.53744 0
M  V30 1302 C 119.211 -0.496439 2.23759 0
M  V30 1303 C 120.211 -1.0252 1.2388 0
M  V30 1304 O 121.401 -0.913974 1.48297 0
M  V30 1305 C 118.533 -1.69187 2.95954 0
M  V30 1306 H 119.726 0.115952 2.99676 0
M  V30 1307 H 117.279 0.0978939 1.55993 0
M  V30 1308 H 118.014 -2.34288 2.24231 0
M  V30 1309 H 117.799 -1.31989 3.69217 0
M  V30 1310 H 119.289 -2.28969 3.49232 0
M  V30 1311 N 119.726 -1.57421 0.075193 0
M  V30 1312 C 120.656 -2.15942 -0.888324 0
M  V30 1313 C 121.637 -1.08737 -1.30806 0
M  V30 1314 O 122.822 -1.36787 -1.37851 0
M  V30 1315 C 119.952 -2.72379 -2.1547 0
M  V30 1316 C 118.906 -3.8478 -1.87425 0
M  V30 1317 C 118.232 -4.27834 -3.20721 0
M  V30 1318 C 119.532 -5.08869 -1.17684 0
M  V30 1319 H 121.226 -2.96705 -0.400799 0
M  V30 1320 H 118.772 -1.42723 -0.191342 0
M  V30 1321 H 120.725 -3.11965 -2.83295 0
M  V30 1322 H 119.449 -1.88841 -2.6647 0
M  V30 1323 H 118.108 -3.45703 -1.22004 0
M  V30 1324 H 117.756 -3.41214 -3.6957 0
M  V30 1325 H 117.456 -5.03605 -3.02746 0
M  V30 1326 H 118.98 -4.70039 -3.89738 0
M  V30 1327 H 120.394 -5.4575 -1.75584 0
M  V30 1328 H 118.791 -5.8994 -1.09956 0
M  V30 1329 H 119.861 -4.84648 -0.156453 0
M  V30 1330 N 121.204 0.198386 -1.56346 0
M  V30 1331 C 122.151 1.24589 -1.94284 0
M  V30 1332 C 123.121 1.454 -0.802997 0
M  V30 1333 O 124.306 1.58588 -1.06087 0
M  V30 1334 C 121.446 2.58631 -2.28482 0
M  V30 1335 C 120.559 2.45426 -3.55514 0
M  V30 1336 C 119.694 3.7215 -3.79049 0
M  V30 1337 C 118.733 3.53763 -4.99518 0
M  V30 1338 N 117.87 4.72491 -5.19323 0
M  V30 1339 H 122.71 0.915356 -2.83593 0
M  V30 1340 H 120.247 0.440629 -1.40346 0
M  V30 1341 H 122.205 3.3672 -2.46324 0
M  V30 1342 H 120.835 2.89734 -1.42317 0
M  V30 1343 H 119.887 1.58652 -3.45737 0
M  V30 1344 H 121.199 2.27772 -4.43758 0
M  V30 1345 H 120.353 4.58679 -3.97113 0
M  V30 1346 H 119.092 3.92754 -2.89129 0
M  V30 1347 H 118.097 2.65619 -4.8138 0
M  V30 1348 H 119.322 3.34607 -5.90944 0
M  V30 1349 H 117.268 4.93365 -4.3235 0
M  V30 1350 H 117.185 4.5765 -6.01741 0
M  V30 1351 H 118.453 5.6038 -5.41843 0
M  V30 1352 N 122.682 1.50554 0.465978 0
M  V30 1353 C 123.645 1.69233 1.54574 0
M  V30 1354 C 124.645 0.562901 1.50626 0
M  V30 1355 O 125.835 0.830016 1.53155 0
M  V30 1356 C 122.967 1.7223 2.94193 0
M  V30 1357 H 124.16 2.65571 1.39327 0
M  V30 1358 H 121.713 1.40111 0.692711 0
M  V30 1359 H 122.448 0.77603 3.14878 0
M  V30 1360 H 122.233 2.54285 2.98466 0
M  V30 1361 H 123.723 1.88618 3.72576 0
M  V30 1362 N 124.16 -0.719506 1.40217 0
M  V30 1363 C 125.123 -1.8153 1.39927 0
M  V30 1364 C 126.123 -1.58095 0.293723 0
M  V30 1365 O 127.313 -1.65209 0.552429 0
M  V30 1366 C 124.445 -3.19561 1.18716 0
M  V30 1367 H 125.638 -1.83186 2.37451 0
M  V30 1368 H 123.191 -0.924746 1.26008 0
M  V30 1369 H 123.926 -3.23557 0.219366 0
M  V30 1370 H 123.711 -3.3797 1.98793 0
M  V30 1371 H 125.201 -3.99598 1.21291 0
M  V30 1372 N 125.638 -1.25649 -0.95132 0
M  V30 1373 C 126.588 -1.03004 -2.03406 0
M  V30 1374 C 127.572 0.034187 -1.60864 0
M  V30 1375 O 128.764 -0.181549 -1.76066 0
M  V30 1376 C 125.893 -0.654255 -3.37008 0
M  V30 1377 C 124.979 -1.75542 -3.86065 0
M  V30 1378 N 125.37 -2.99113 -4.07879 0
M  V30 1379 C 123.668 -1.63669 -4.14884 0
M  V30 1380 C 124.369 -3.70611 -4.48356 0
M  V30 1381 N 123.345 -2.98247 -4.54477 0
M  V30 1382 H 127.147 -1.96813 -2.1827 0
M  V30 1383 H 124.661 -1.16017 -1.13639 0
M  V30 1384 H 126.658 -0.473206 -4.14206 0
M  V30 1385 H 125.318 0.276468 -3.23521 0
M  V30 1386 H 126.329 -3.35124 -3.94857 0
M  V30 1387 H 123.006 -0.775161 -4.10241 0
M  V30 1388 H 124.396 -4.76695 -4.73509 0
M  V30 1389 N 127.117 1.15442 -1.07289 0
M  V30 1390 C 128.347 1.89821 -0.815576 0
M  V30 1391 C 128.755 1.7823 0.634867 0
M  V30 1392 O 128.098 1.13152 1.44715 0
M  V30 1393 C 128.16 3.40817 -1.14385 0
M  V30 1394 C 127.824 3.76193 -2.59476 0
M  V30 1395 C 128.821 3.77269 -3.57721 0
M  V30 1396 C 126.506 4.0652 -2.95037 0
M  V30 1397 C 128.5 4.08176 -4.89562 0
M  V30 1398 C 126.187 4.37092 -4.27076 0
M  V30 1399 C 127.185 4.37902 -5.24148 0
M  V30 1400 O 126.873 4.67741 -6.53815 0
M  V30 1401 H 126.605 0.608465 -0.294528 0
M  V30 1402 H 129.159 1.472 -1.43252 0
M  V30 1403 H 127.389 3.83835 -0.469865 0
M  V30 1404 H 129.078 3.96485 -0.869179 0
M  V30 1405 H 129.844 3.5394 -3.3159 0
M  V30 1406 H 125.723 4.05049 -2.20128 0
M  V30 1407 H 129.267 4.08723 -5.65324 0
M  V30 1408 H 125.164 4.59889 -4.5296 0
M  V30 1409 H 125.932 4.85509 -6.58957 0
M  V30 1410 N 128.595 0.856903 1.32268 0
M  V30 1411 C 129.545 0.274899 2.26337 0
M  V30 1412 C 130.529 -0.580543 1.50062 0
M  V30 1413 O 131.721 -0.429559 1.71708 0
M  V30 1414 C 128.85 -0.533841 3.39124 0
M  V30 1415 C 127.936 0.334114 4.22782 0
M  V30 1416 N 128.327 1.42143 4.85416 0
M  V30 1417 C 126.625 0.124256 4.45827 0
M  V30 1418 C 127.326 1.95559 5.47843 0
M  V30 1419 N 126.302 1.25444 5.28928 0
M  V30 1420 H 130.104 1.10612 2.72291 0
M  V30 1421 H 127.618 0.703258 1.46383 0
M  V30 1422 H 129.615 -0.96722 4.05525 0
M  V30 1423 H 128.275 -1.36283 2.94715 0
M  V30 1424 H 129.286 1.80436 4.85451 0
M  V30 1425 H 125.963 -0.669837 4.12092 0
M  V30 1426 H 127.353 2.86714 6.07655 0
M  V30 1427 N 130.073 -1.45103 0.615059 0
M  V30 1428 C 131.301 -2.06553 0.11977 0
M  V30 1429 C 131.716 -1.45842 -1.19898 0
M  V30 1430 O 131.073 -0.575325 -1.73194 0
M  V30 1431 C 131.124 -3.61495 -0.018364 0
M  V30 1432 O 130.845 -4.19942 1.24822 0
M  V30 1433 C 132.346 -4.39947 -0.544237 0
M  V30 1434 H 129.566 -0.667096 0.0722739 0
M  V30 1435 H 132.11 -1.8623 0.84491 0
M  V30 1436 H 130.265 -3.81135 -0.693865 0
M  V30 1437 H 130.679 -5.13204 1.0827 0
M  V30 1438 H 132.153 -5.48838 -0.589953 0
M  V30 1439 H 132.63 -4.10255 -1.56805 0
M  V30 1440 H 133.236 -4.25188 0.0974703 0
M  V30 1441 N 131.551 -0.354651 -1.53558 0
M  V30 1442 C 132.501 0.513179 -2.2215 0
M  V30 1443 C 133.485 1.05734 -1.21281 0
M  V30 1444 O 134.677 0.989202 -1.46778 0
M  V30 1445 C 131.806 1.65798 -3.00609 0
M  V30 1446 C 130.892 1.12722 -4.08845 0
M  V30 1447 N 131.283 0.318563 -5.04796 0
M  V30 1448 C 129.581 1.40307 -4.23356 0
M  V30 1449 C 130.282 0.0292224 -5.81693 0
M  V30 1450 N 129.258 0.623891 -5.40008 0
M  V30 1451 H 133.06 -0.111586 -2.93688 0
M  V30 1452 H 130.574 -0.162091 -1.61589 0
M  V30 1453 H 132.571 2.29176 -3.48258 0
M  V30 1454 H 131.231 2.28591 -2.306 0
M  V30 1455 H 132.242 -0.0413091 -5.17884 0
M  V30 1456 H 128.919 2.03458 -3.6457 0
M  V30 1457 H 130.309 -0.623808 -6.68998 0
M  V30 1458 N 133.029 1.57378 -0.0835403 0
M  V30 1459 C 133.976 2.13384 0.879539 0
M  V30 1460 C 134.946 1.04936 1.28754 0
M  V30 1461 O 136.131 1.32662 1.37133 0
M  V30 1462 C 133.271 2.70932 2.13752 0
M  V30 1463 C 132.384 3.93575 1.7811 0
M  V30 1464 C 131.519 4.39326 2.98607 0
M  V30 1465 C 130.558 5.54587 2.59037 0
M  V30 1466 N 129.695 5.95243 3.72331 0
M  V30 1467 H 134.535 2.9537 0.395076 0
M  V30 1468 H 132.072 1.45953 0.183349 0
M  V30 1469 H 134.03 3.02411 2.87408 0
M  V30 1470 H 132.66 1.91693 2.59718 0
M  V30 1471 H 131.712 3.68483 0.94469 0
M  V30 1472 H 133.024 4.77258 1.45005 0
M  V30 1473 H 132.178 4.72528 3.80529 0
M  V30 1474 H 130.917 3.5452 3.34913 0
M  V30 1475 H 129.922 5.21024 1.75539 0
M  V30 1476 H 131.147 6.41133 2.23887 0
M  V30 1477 H 129.093 5.13385 4.08378 0
M  V30 1478 H 129.01 6.73694 3.43034 0
M  V30 1479 H 130.278 6.33072 4.54797 0
M  V30 1480 N 134.507 -0.190092 1.56449 0
M  V30 1481 C 135.417 -1.25591 1.98152 0
M  V30 1482 C 136.433 -1.49519 0.889944 0
M  V30 1483 O 137.609 -1.62036 1.19609 0
M  V30 1484 C 134.674 -2.57916 2.3169 0
M  V30 1485 C 133.735 -2.42015 3.5458 0
M  V30 1486 C 132.968 -3.6803 3.8651 0
M  V30 1487 O 133.191 -4.72413 3.1966 0
M  V30 1488 O 132.125 -3.6326 4.79923 0
M  V30 1489 H 135.951 -0.931988 2.89046 0
M  V30 1490 H 133.536 -0.395488 1.4407 0
M  V30 1491 H 135.418 -3.36008 2.54316 0
M  V30 1492 H 134.093 -2.89925 1.43963 0
M  V30 1493 H 133 -1.62017 3.37196 0
M  V30 1494 H 134.333 -2.14937 4.4279 0
M  V30 1495 O 136.024 -1.57982 -0.335264 0
M  V30 1496 H 136.715 -1.6682 -0.984419 0
M  V30 END ATOM
M  V30 BEGIN BOND
M  V30 END BOND
M  V30 END CTAB
M  END
$$$$
