drugbank_target|P48169 Gamma-aminobutyric acid receptor subunit alpha-4 (DB00186; DB00189; DB00228; DB00231; DB00237; DB00241; DB00252; DB00292; DB00306; DB00312; DB00349; DB00371; DB00402; DB00404; DB00463; DB00475; DB00543; DB00546; DB00555; DB00603; DB00628; DB00659; DB00683; DB00690; DB00753; DB00794; DB00801; DB00818; DB00829; DB00842; DB00897; DB01028; DB01043; DB01068; DB01107; DB01159; DB01189; DB01205; DB01215; DB01236; DB01437; DB01489; DB01511; DB01544; DB01545; DB01553; DB01558; DB01559; DB01587; DB01588; DB01589; DB01594; DB01595; DB01708; DB01956; DB09017; DB09118; DB09166; DB11582; DB11859; DB11901; DB12404; DB12537; DB13335; DB13437; DB13643; DB13837; DB13872; DB14028; DB14672; DB14715; DB14719; DB15489)
 OpenBabel12092119323D

  0  0  0     0  0            999 V3000
M  V30 BEGIN CTAB
M  V30 COUNTS 8704 8806 0 0 0
M  V30 BEGIN ATOM
M  V30 1 H -0.908 1.98254 -0.117106 0
M  V30 2 N 0 1.576 0 0
M  V30 3 C 0.933 2.03868 1.02534 0
M  V30 4 C 1.911 0.928543 1.3348 0
M  V30 5 O 3.095 1.19667 1.45644 0
M  V30 6 C 0.222 2.43627 2.35294 0
M  V30 7 C -0.732 3.65373 2.2001 0
M  V30 8 S 0.101 5.13292 1.52614 0
M  V30 9 C 1.257 5.56322 2.86805 0
M  V30 10 H 1.49 2.90518 0.631377 0
M  V30 11 H -0.977 1.52953 0.210867 0
M  V30 12 H 0.981 2.67203 3.11629 0
M  V30 13 H -0.358 1.57376 2.7183 0
M  V30 14 H -1.165 3.90944 3.18086 0
M  V30 15 H -1.563 3.418 1.51819 0
M  V30 16 H 0.729 5.58782 3.83104 0
M  V30 17 H 1.672 6.56266 2.65933 0
M  V30 18 H 2.08 4.83886 2.90714 0
M  V30 19 N 1.4781 -0.272755 1.55222 0
M  V30 20 C 2.7241 -1.00581 1.761 0
M  V30 21 C 3.0571 -1.85932 0.560625 0
M  V30 22 O 2.3321 -1.89416 -0.441801 0
M  V30 23 C 2.6151 -1.88816 3.06628 0
M  V30 24 C 2.4681 -1.06457 4.37021 0
M  V30 25 C 3.7871 -2.8752 3.33197 0
M  V30 26 H 0.9061 -0.364244 0.640699 0
M  V30 27 H 3.5481 -0.278189 1.87952 0
M  V30 28 H 1.6981 -2.50856 2.96654 0
M  V30 29 H 3.3701 -0.464863 4.58952 0
M  V30 30 H 1.6131 -0.368043 4.32236 0
M  V30 31 H 2.2841 -1.71514 5.24678 0
M  V30 32 H 4.7601 -2.35615 3.42965 0
M  V30 33 H 3.6361 -3.46399 4.25792 0
M  V30 34 H 3.8971 -3.62657 2.52849 0
M  V30 35 N 2.9562 -1.48159 -0.537278 0
M  V30 36 C 4.1812 -1.59707 -1.32319 0
M  V30 37 C 4.6062 -0.254859 -1.86365 0
M  V30 38 O 3.9642 0.772378 -1.64024 0
M  V30 39 C 4.0122 -2.6412 -2.45505 0
M  V30 40 O 3.1162 -2.20774 -3.48328 0
M  V30 41 H 2.4572 -0.535791 -0.392204 0
M  V30 42 H 4.9872 -1.94092 -0.647268 0
M  V30 43 H 4.9972 -2.85166 -2.91795 0
M  V30 44 H 3.6722 -3.61567 -2.05528 0
M  V30 45 H 2.2492 -2.09911 -3.08207 0
M  V30 46 N 4.4343 0.785586 -1.36625 0
M  V30 47 C 5.3973 1.87999 -1.31107 0
M  V30 48 C 6.3973 1.59316 -0.217959 0
M  V30 49 O 7.5873 1.67656 -0.472977 0
M  V30 50 C 4.7193 3.24861 -1.03334 0
M  V30 51 H 5.9123 1.94307 -2.2844 0
M  V30 52 H 3.4653 0.983813 -1.21453 0
M  V30 53 H 4.2003 3.24235 -0.0647432 0
M  V30 54 H 3.9853 3.4707 -1.82441 0
M  V30 55 H 5.4753 4.04929 -1.02088 0
M  V30 56 N 5.9124 1.20967 1.01018 0
M  V30 57 C 6.8594 0.964281 2.09691 0
M  V30 58 C 7.8294 -0.107853 1.65749 0
M  V30 59 O 9.0144 0.0381987 1.90762 0
M  V30 60 C 6.1544 0.52943 3.41015 0
M  V30 61 C 5.2674 1.67043 3.98398 0
M  V30 62 C 4.4024 1.18525 5.17808 0
M  V30 63 C 3.4414 2.29892 5.67288 0
M  V30 64 N 2.5784 1.82546 6.77954 0
M  V30 65 H 7.4184 1.89463 2.30017 0
M  V30 66 H 4.9554 0.944289 1.1279 0
M  V30 67 H 6.9134 0.258588 4.16398 0
M  V30 68 H 5.5434 -0.363919 3.20742 0
M  V30 69 H 4.5954 2.05603 3.20049 0
M  V30 70 H 5.9074 2.50877 4.31117 0
M  V30 71 H 5.0614 0.870762 6.00419 0
M  V30 72 H 3.8004 0.316887 4.86669 0
M  V30 73 H 2.8054 2.6215 4.83278 0
M  V30 74 H 4.0304 3.17216 6.00459 0
M  V30 75 H 1.9764 0.980454 6.48632 0
M  V30 76 H 1.8934 2.59956 7.09901 0
M  V30 77 H 3.1614 1.54115 7.64113 0
M  V30 78 N 7.3905 -1.2043 1.01659 0
M  V30 79 C 8.3375 -2.23215 0.586822 0
M  V30 80 C 9.3075 -1.61382 -0.393085 0
M  V30 81 O 10.4925 -1.88544 -0.292525 0
M  V30 82 C 7.6325 -3.45032 -0.0687464 0
M  V30 83 C 6.7455 -4.21296 0.955724 0
M  V30 84 C 5.8805 -5.30507 0.271208 0
M  V30 85 C 4.9195 -5.98515 1.28244 0
M  V30 86 N 4.0565 -6.99316 0.62459 0
M  V30 87 H 8.8965 -2.59336 1.46796 0
M  V30 88 H 6.4335 -1.27431 0.734836 0
M  V30 89 H 8.3915 -4.1459 -0.465965 0
M  V30 90 H 7.0215 -3.09604 -0.913529 0
M  V30 91 H 6.0735 -3.50803 1.4711 0
M  V30 92 H 7.3855 -4.6803 1.72479 0
M  V30 93 H 6.5395 -6.06428 -0.18151 0
M  V30 94 H 5.2785 -4.8481 -0.530163 0
M  V30 95 H 4.2835 -5.21355 1.74554 0
M  V30 96 H 5.5085 -6.46298 2.08509 0
M  V30 97 H 3.4545 -6.55812 -0.156914 0
M  V30 98 H 3.3715 -7.44178 1.33172 0
M  V30 99 H 4.6395 -7.79255 0.195462 0
M  V30 100 N 8.8686 -0.792821 -1.36206 0
M  V30 101 C 10.1146 -0.36733 -1.99446 0
M  V30 102 C 10.4476 1.05917 -1.62774 0
M  V30 103 O 9.7226 1.7324 -0.88421 0
M  V30 104 C 10.0056 -0.535044 -3.56103 0
M  V30 105 C 9.8586 -2.00548 -4.02617 0
M  V30 106 C 11.1776 0.0478191 -4.40074 0
M  V30 107 H 8.2966 -0.134941 -0.724541 0
M  V30 108 H 10.9386 -0.999794 -1.61568 0
M  V30 109 H 9.0886 0.00336329 -3.885 0
M  V30 110 H 10.7606 -2.60521 -3.80692 0
M  V30 111 H 9.0036 -2.50686 -3.54032 0
M  V30 112 H 9.6746 -2.07377 -5.11565 0
M  V30 113 H 12.1506 -0.411822 -4.14057 0
M  V30 114 H 11.0266 -0.0995336 -5.4881 0
M  V30 115 H 11.2876 1.14025 -4.27142 0
M  V30 116 N 10.3467 1.47872 -0.545128 0
M  V30 117 C 11.7577 1.86384 -0.108581 0
M  V30 118 C 12.1087 1.45309 1.31832 0
M  V30 119 O 11.2337 0.850641 1.9898 0
M  V30 120 C 11.8287 3.38265 -0.190274 0
M  V30 121 C 10.3877 3.75914 0.191164 0
M  V30 122 C 9.5347 2.71926 -0.543273 0
M  V30 123 H 12.4857 1.39561 -0.755537 0
M  V30 124 H 12.5067 3.75831 0.594217 0
M  V30 125 H 12.0187 3.6813 -1.2289 0
M  V30 126 H 10.1197 3.51665 1.23136 0
M  V30 127 H 10.2327 4.78836 -0.158987 0
M  V30 128 H 8.5967 2.54697 0.0122495 0
M  V30 129 H 9.3797 3.04634 -1.58282 0
M  V30 130 N 11.8248 0.280983 1.55075 0
M  V30 131 C 12.7878 -0.590896 2.21452 0
M  V30 132 C 13.7878 -1.07682 1.19421 0
M  V30 133 O 14.9778 -0.97605 1.44288 0
M  V30 134 C 12.1098 -1.81587 2.88511 0
M  V30 135 H 13.3028 -0.0112554 2.99898 0
M  V30 136 H 10.8558 0.0316438 1.56268 0
M  V30 137 H 11.5908 -2.43587 2.14093 0
M  V30 138 H 11.3758 -1.4753 3.63287 0
M  V30 139 H 12.8658 -2.43575 3.39206 0
M  V30 140 N 13.3029 -1.57598 0.00835791 0
M  V30 141 C 14.5519 -1.90107 -0.673968 0
M  V30 142 C 14.8649 -0.884275 -1.7447 0
M  V30 143 O 16.0709 -1.09987 -2.48224 0
M  V30 144 C 14.5269 -3.37497 -1.24995 0
M  V30 145 C 14.1349 -4.47491 -0.2136 0
M  V30 146 C 15.8789 -3.79104 -1.90999 0
M  V30 147 C 13.7859 -5.85963 -0.80005 0
M  V30 148 H 12.7159 -0.709393 -0.255495 0
M  V30 149 H 15.3669 -1.83365 0.0702693 0
M  V30 150 H 13.7489 -3.39102 -2.04513 0
M  V30 151 H 14.9229 -4.57414 0.557596 0
M  V30 152 H 13.2379 -4.14956 0.346474 0
M  V30 153 H 15.8349 -4.79901 -2.35795 0
M  V30 154 H 16.1779 -3.1306 -2.74407 0
M  V30 155 H 16.7109 -3.79833 -1.18203 0
M  V30 156 H 13.4499 -6.555 -0.00456708 0
M  V30 157 H 12.9699 -5.79687 -1.54021 0
M  V30 158 H 14.6489 -6.33884 -1.29615 0
M  V30 159 N 14.781 0.264519 -1.55364 0
M  V30 160 C 15.744 1.31046 -1.88042 0
M  V30 161 C 16.744 1.41943 -0.755569 0
M  V30 162 O 17.934 1.40947 -1.02369 0
M  V30 163 C 15.066 2.69067 -2.09323 0
M  V30 164 H 16.259 1.03297 -2.81549 0
M  V30 165 H 13.812 0.502989 -1.47986 0
M  V30 166 H 14.547 3.01982 -1.18226 0
M  V30 167 H 14.332 2.62542 -2.91229 0
M  V30 168 H 15.822 3.44623 -2.35848 0
M  V30 169 N 16.2591 1.48442 0.529413 0
M  V30 170 C 17.1891 1.65902 1.64313 0
M  V30 171 C 18.1701 0.507897 1.6234 0
M  V30 172 O 19.3551 0.740503 1.79528 0
M  V30 173 C 16.4851 1.69911 3.02898 0
M  V30 174 C 15.4391 2.8453 3.19729 0
M  V30 175 C 14.7651 2.73629 4.59381 0
M  V30 176 C 16.0651 4.25821 3.02447 0
M  V30 177 H 17.7591 2.5914 1.49955 0
M  V30 178 H 15.3051 1.24709 0.719982 0
M  V30 179 H 17.2581 1.80715 3.80684 0
M  V30 180 H 15.9821 0.732524 3.18279 0
M  V30 181 H 14.6411 2.73283 2.44361 0
M  V30 182 H 14.2891 1.74938 4.71599 0
M  V30 183 H 13.9891 3.50541 4.71588 0
M  V30 184 H 15.5131 2.86401 5.39265 0
M  V30 185 H 16.9271 4.37898 3.70024 0
M  V30 186 H 15.3241 5.03735 3.26146 0
M  V30 187 H 16.3941 4.42244 1.98867 0
M  V30 188 N 17.7372 -0.778329 1.37039 0
M  V30 189 C 18.9622 -1.57248 1.35233 0
M  V30 190 C 19.3872 -1.87999 -0.0615568 0
M  V30 191 O 18.7452 -1.48734 -1.03672 0
M  V30 192 C 18.7932 -2.86353 2.19167 0
M  V30 193 O 17.8972 -3.80442 1.59178 0
M  V30 194 H 17.2382 -0.476569 0.462362 0
M  V30 195 H 19.7682 -0.963853 1.80474 0
M  V30 196 H 19.7782 -3.35519 2.32145 0
M  V30 197 H 18.4532 -2.63299 3.21942 0
M  V30 198 H 17.0302 -3.39067 1.55203 0
M  V30 199 N 19.2153 -1.21501 -1.00376 0
M  V30 200 C 20.1783 -0.976927 -2.07337 0
M  V30 201 C 21.1783 0.0525322 -1.60714 0
M  V30 202 O 22.3683 -0.184869 -1.73216 0
M  V30 203 C 19.5003 -0.473423 -3.37597 0
M  V30 204 H 20.6933 -1.92587 -2.29892 0
M  V30 205 H 18.2463 -1.03217 -1.17371 0
M  V30 206 H 18.9813 0.480379 -3.20722 0
M  V30 207 H 18.7663 -1.216 -3.72768 0
M  V30 208 H 20.2563 -0.32675 -4.1632 0
M  V30 209 N 20.6934 1.19889 -1.02296 0
M  V30 210 C 21.9414 1.89046 -0.714558 0
M  V30 211 C 22.2624 1.79636 0.758681 0
M  V30 212 O 21.5324 1.20292 1.54618 0
M  V30 213 H 20.1124 0.699802 -0.261317 0
M  V30 214 H 22.7744 1.45574 -1.29592 0
M  V30 215 H 21.8704 2.95524 -1.0036 0
M  V30 216 N 22.1715 0.800033 1.35784 0
M  V30 217 C 23.4175 0.377901 1.99248 0
M  V30 218 C 23.7505 -1.05052 1.63333 0
M  V30 219 O 23.0255 -1.72768 0.893385 0
M  V30 220 C 23.3085 0.553922 3.55814 0
M  V30 221 C 23.1615 2.0268 4.01548 0
M  V30 222 C 24.4805 -0.0244802 4.40093 0
M  V30 223 H 21.5995 0.138782 0.723815 0
M  V30 224 H 24.2415 1.00835 1.61035 0
M  V30 225 H 22.3915 0.0172398 3.88496 0
M  V30 226 H 24.0635 2.62536 3.79305 0
M  V30 227 H 22.3065 2.5256 3.52698 0
M  V30 228 H 22.9775 2.10087 5.10458 0
M  V30 229 H 25.4535 0.433775 4.13833 0
M  V30 230 H 24.3295 0.128637 5.48749 0
M  V30 231 H 24.5905 -1.11758 4.27741 0
M  V30 232 N 23.6496 -1.47581 0.552962 0
M  V30 233 C 24.8746 -2.07378 0.0300593 0
M  V30 234 C 25.2996 -1.40355 -1.25229 0
M  V30 235 O 24.6576 -0.477099 -1.7491 0
M  V30 236 C 24.7056 -3.60274 -0.153231 0
M  V30 237 O 23.8096 -3.94041 -1.21678 0
M  V30 238 H 23.1506 -0.662158 0.0494182 0
M  V30 239 H 25.6806 -1.89662 0.767434 0
M  V30 240 H 25.6906 -4.0633 -0.368761 0
M  V30 241 H 24.3656 -4.08455 0.783397 0
M  V30 242 H 22.9426 -3.59735 -0.982079 0
M  V30 243 N 25.1277 -0.289203 -1.54924 0
M  V30 244 C 26.3747 0.323519 -1.99899 0
M  V30 245 C 26.7027 1.54797 -1.17762 0
M  V30 246 O 25.9577 1.94237 -0.238835 0
M  V30 247 C 26.2567 0.736119 -3.49737 0
M  V30 248 C 25.9227 -0.385276 -4.49251 0
M  V30 249 C 24.5847 -0.693156 -4.76181 0
M  V30 250 C 26.9367 -1.14021 -5.08575 0
M  V30 251 C 24.2647 -1.7593 -5.59701 0
M  V30 252 C 26.6167 -2.19619 -5.93254 0
M  V30 253 C 25.2807 -2.51026 -6.185 0
M  V30 254 H 24.5507 0.118384 -0.731482 0
M  V30 255 H 27.1977 -0.405847 -1.8715 0
M  V30 256 H 25.5027 1.54539 -3.60035 0
M  V30 257 H 27.1997 1.22118 -3.81953 0
M  V30 258 H 23.7897 -0.135202 -4.28387 0
M  V30 259 H 27.9737 -0.915611 -4.87781 0
M  V30 260 H 23.2297 -2.0075 -5.77503 0
M  V30 261 H 27.4037 -2.78581 -6.38252 0
M  V30 262 H 25.0307 -3.33772 -6.83008 0
M  V30 263 N 26.6058 1.57591 -0.0167156 0
M  V30 264 C 27.5688 2.08393 0.954204 0
M  V30 265 C 28.5688 0.996531 1.26198 0
M  V30 266 O 29.7588 1.25858 1.20438 0
M  V30 267 C 26.8908 2.5394 2.27436 0
M  V30 268 H 28.0838 2.95455 0.514451 0
M  V30 269 H 25.6368 1.54582 0.231089 0
M  V30 270 H 26.3718 1.70171 2.76066 0
M  V30 271 H 26.1568 3.33371 2.06412 0
M  V30 272 H 27.6468 2.93512 2.97053 0
M  V30 273 N 28.0839 -0.256276 1.55502 0
M  V30 274 C 29.0139 -1.32102 1.92539 0
M  V30 275 C 29.9949 -1.50684 0.789194 0
M  V30 276 O 31.1799 -1.63449 1.04872 0
M  V30 277 C 28.3099 -2.67752 2.21192 0
M  V30 278 C 27.2639 -2.63878 3.36975 0
M  V30 279 C 26.5899 -4.03236 3.51147 0
M  V30 280 C 27.8899 -2.21682 4.72921 0
M  V30 281 H 29.5839 -1.01351 2.81724 0
M  V30 282 H 27.1299 -0.486105 1.35547 0
M  V30 283 H 29.0829 -3.42365 2.45691 0
M  V30 284 H 27.8069 -3.0012 1.28824 0
M  V30 285 H 26.4659 -1.91722 3.12471 0
M  V30 286 H 26.1139 -4.32854 2.56216 0
M  V30 287 H 25.8139 -4.01535 4.29003 0
M  V30 288 H 27.3379 -4.79563 3.77957 0
M  V30 289 H 28.7519 -2.86023 4.96854 0
M  V30 290 H 27.1489 -2.3111 5.53812 0
M  V30 291 H 28.2189 -1.16833 4.70615 0
M  V30 292 N 29.562 -1.4872 -0.521534 0
M  V30 293 C 30.492 -1.66771 -1.63431 0
M  V30 294 C 31.473 -0.516499 -1.62069 0
M  V30 295 O 32.658 -0.750013 -1.79132 0
M  V30 296 C 29.788 -1.71515 -3.01993 0
M  V30 297 C 28.742 -2.86222 -3.18216 0
M  V30 298 C 28.068 -2.76061 -4.57924 0
M  V30 299 C 29.368 -4.27419 -3.00184 0
M  V30 300 H 31.062 -2.59932 -1.48579 0
M  V30 301 H 28.608 -1.25089 -0.713358 0
M  V30 302 H 30.561 -1.82731 -3.7972 0
M  V30 303 H 29.285 -0.749393 -3.17886 0
M  V30 304 H 27.944 -2.74575 -2.42908 0
M  V30 305 H 27.592 -1.77437 -4.70665 0
M  V30 306 H 27.292 -3.53037 -4.69722 0
M  V30 307 H 28.816 -2.89256 -5.37739 0
M  V30 308 H 30.23 -4.39855 -3.67697 0
M  V30 309 H 28.627 -5.05458 -3.2347 0
M  V30 310 H 29.697 -4.43293 -1.96518 0
M  V30 311 N 31.0401 0.771051 -1.3745 0
M  V30 312 C 32.4561 1.07171 -1.18265 0
M  V30 313 C 32.6561 2.01491 -0.019287 0
M  V30 314 O 31.7121 2.44244 0.640408 0
M  V30 315 C 33.0251 1.66854 -2.50161 0
M  V30 316 C 34.5731 1.79109 -2.56689 0
M  V30 317 C 35.0481 2.42205 -3.88717 0
M  V30 318 N 36.5391 2.49655 -3.90162 0
M  V30 319 C 37.2741 2.9933 -4.8907 0
M  V30 320 N 36.7701 3.49172 -5.98374 0
M  V30 321 N 38.5631 2.9821 -4.76474 0
M  V30 322 H 30.7141 0.144796 -2.11906 0
M  V30 323 H 32.9771 0.126863 -0.939473 0
M  V30 324 H 32.6831 1.05017 -3.35655 0
M  V30 325 H 32.5571 2.6614 -2.673 0
M  V30 326 H 34.9441 2.40077 -1.71601 0
M  V30 327 H 35.0251 0.785757 -2.43433 0
M  V30 328 H 34.6691 1.81875 -4.74219 0
M  V30 329 H 34.5991 3.43345 -3.99276 0
M  V30 330 H 37.0901 2.14383 -3.11205 0
M  V30 331 H 37.4031 3.8548 -6.69795 0
M  V30 332 H 35.7481 3.47275 -6.02018 0
M  V30 333 H 38.9391 2.58572 -3.90203 0
M  V30 334 H 39.1121 3.36613 -5.53711 0
M  V30 335 N 32.5182 1.22032 0.997298 0
M  V30 336 C 33.7652 1.04222 1.73621 0
M  V30 337 C 34.0932 -0.423264 1.89839 0
M  V30 338 O 33.3482 -1.3302 1.43542 0
M  V30 339 C 33.6472 1.69345 3.14733 0
M  V30 340 C 33.3132 3.19226 3.18442 0
M  V30 341 C 31.9752 3.60124 3.19161 0
M  V30 342 C 34.3272 4.15181 3.15078 0
M  V30 343 C 31.6552 4.95467 3.14212 0
M  V30 344 C 34.0072 5.50495 3.1167 0
M  V30 345 C 32.6712 5.90779 3.10703 0
M  V30 346 H 31.9412 0.381374 0.635323 0
M  V30 347 H 34.5882 1.51732 1.16831 0
M  V30 348 H 32.8932 1.14147 3.74803 0
M  V30 349 H 34.5902 1.53059 3.7064 0
M  V30 350 H 31.1802 2.86659 3.18629 0
M  V30 351 H 35.3642 3.84605 3.13676 0
M  V30 352 H 30.6202 5.25916 3.11805 0
M  V30 353 H 34.7942 6.24576 3.08022 0
M  V30 354 H 32.4212 6.9562 3.06622 0
M  V30 355 N 33.9963 -1.19345 1.0293 0
M  V30 356 C 34.9263 -2.2481 0.631105 0
M  V30 357 C 35.9073 -1.66245 -0.360104 0
M  V30 358 O 37.0923 -1.92677 -0.242726 0
M  V30 359 C 34.2223 -3.47295 -0.0184607 0
M  V30 360 C 33.1763 -4.18536 0.895073 0
M  V30 361 C 32.5023 -5.34586 0.110592 0
M  V30 362 C 33.8023 -4.73287 2.209 0
M  V30 363 H 35.4963 -2.58372 1.51275 0
M  V30 364 H 33.0423 -1.24194 0.728818 0
M  V30 365 H 34.9953 -4.20268 -0.308675 0
M  V30 366 H 33.7193 -3.12933 -0.934907 0
M  V30 367 H 32.3783 -3.47446 1.16949 0
M  V30 368 H 32.0263 -4.96469 -0.807902 0
M  V30 369 H 31.7263 -5.83183 0.719087 0
M  V30 370 H 33.2503 -6.10355 -0.172871 0
M  V30 371 H 34.6643 -5.38013 1.98028 0
M  V30 372 H 33.0613 -5.32373 2.76946 0
M  V30 373 H 34.1313 -3.91331 2.86336 0
M  V30 374 N 35.4744 -0.807222 -1.35358 0
M  V30 375 C 36.7144 -0.393534 -2.00576 0
M  V30 376 C 37.0784 1.0203 -1.62647 0
M  V30 377 O 38.2794 1.53603 -2.20589 0
M  V30 378 C 36.5504 -0.572017 -3.52793 0
M  V30 379 S 38.1094 -0.248845 -4.38094 0
M  V30 380 H 34.9274 -0.149425 -0.695121 0
M  V30 381 H 37.5294 -1.04961 -1.64935 0
M  V30 382 H 36.2334 -1.60097 -3.77885 0
M  V30 383 H 35.7644 0.099359 -3.93275 0
M  V30 384 H 37.7794 0.943253 -4.87152 0
M  V30 385 N 36.9525 1.47285 -0.560781 0
M  V30 386 C 37.8825 2.32857 0.173105 0
M  V30 387 C 38.8635 1.44009 0.905281 0
M  V30 388 O 40.0485 1.7286 0.885046 0
M  V30 389 C 37.1785 3.25861 1.20133 0
M  V30 390 C 36.1325 4.23978 0.585388 0
M  V30 391 C 35.4585 5.06332 1.7185 0
M  V30 392 C 36.7585 5.20242 -0.463178 0
M  V30 393 H 38.4525 2.94466 -0.541307 0
M  V30 394 H 35.9985 1.41601 -0.261764 0
M  V30 395 H 37.9515 3.84569 1.72293 0
M  V30 396 H 36.6755 2.62315 1.94573 0
M  V30 397 H 35.3345 3.66501 0.085054 0
M  V30 398 H 34.9825 4.39186 2.45203 0
M  V30 399 H 34.6825 5.72762 1.31213 0
M  V30 400 H 36.2065 5.67899 2.24329 0
M  V30 401 H 37.6205 5.73293 -0.027502 0
M  V30 402 H 36.0175 5.94896 -0.788627 0
M  V30 403 H 37.0875 4.65504 -1.35773 0
M  V30 404 N 38.4306 0.297415 1.54768 0
M  V30 405 C 39.3936 -0.567375 2.22066 0
M  V30 406 C 40.3936 -1.06409 1.20556 0
M  V30 407 O 41.5836 -0.960691 1.45315 0
M  V30 408 C 38.7156 -1.78517 2.90421 0
M  V30 409 H 39.9086 0.0205534 2.99893 0
M  V30 410 H 37.4616 0.0482163 1.56226 0
M  V30 411 H 38.1966 -2.41303 2.16664 0
M  V30 412 H 37.9816 -1.43669 3.64831 0
M  V30 413 H 39.4716 -2.39964 3.41771 0
M  V30 414 N 39.9087 -1.5758 0.0250728 0
M  V30 415 C 41.1547 -1.91917 -0.655413 0
M  V30 416 C 41.4877 -0.901433 -1.72011 0
M  V30 417 O 40.7627 0.0764069 -1.9435 0
M  V30 418 C 41.0457 -3.36751 -1.27558 0
M  V30 419 C 40.8987 -4.49258 -0.220719 0
M  V30 420 C 42.2177 -3.81469 -2.19475 0
M  V30 421 H 39.3367 -0.697925 -0.23679 0
M  V30 422 H 41.9787 -1.89825 0.0815036 0
M  V30 423 H 40.1287 -3.38664 -1.90365 0
M  V30 424 H 41.8007 -4.59478 0.409601 0
M  V30 425 H 40.0437 -4.31415 0.454264 0
M  V30 426 H 40.7147 -5.47618 -0.694175 0
M  V30 427 H 43.1907 -3.81266 -1.66659 0
M  V30 428 H 42.0667 -4.83512 -2.59822 0
M  V30 429 H 42.3277 -3.16744 -3.08424 0
M  V30 430 N 41.3868 0.248026 -1.55636 0
M  V30 431 C 42.6268 0.983592 -1.79178 0
M  V30 432 C 42.9908 1.82567 -0.594414 0
M  V30 433 O 44.1918 2.59292 -0.708583 0
M  V30 434 C 42.4628 1.82228 -3.07454 0
M  V30 435 S 44.0218 2.61709 -3.52213 0
M  V30 436 H 40.8398 0.330866 -0.629324 0
M  V30 437 H 43.4418 0.251562 -1.93875 0
M  V30 438 H 42.1458 1.19333 -3.92668 0
M  V30 439 H 41.6768 2.59708 -2.95492 0
M  V30 440 H 43.6918 3.84655 -3.13457 0
M  V30 441 N 42.8649 1.48995 0.513639 0
M  V30 442 C 43.7949 1.67636 1.62544 0
M  V30 443 C 44.7759 0.525087 1.61793 0
M  V30 444 O 45.9609 0.759502 1.78732 0
M  V30 445 C 43.0909 1.73114 3.01079 0
M  V30 446 C 42.0449 2.87905 3.16693 0
M  V30 447 C 41.3709 2.78486 4.56453 0
M  V30 448 C 42.6709 4.29005 2.97913 0
M  V30 449 H 44.3649 2.60716 1.47198 0
M  V30 450 H 41.9109 1.25465 0.706714 0
M  V30 451 H 43.8639 1.84742 3.78746 0
M  V30 452 H 42.5879 0.766241 3.17484 0
M  V30 453 H 41.2469 2.75859 2.41448 0
M  V30 454 H 40.8949 1.7993 4.69717 0
M  V30 455 H 40.5949 3.55523 4.67843 0
M  V30 456 H 42.1189 2.92104 5.36197 0
M  V30 457 H 43.5329 4.41798 3.65359 0
M  V30 458 H 41.9299 5.07166 3.20785 0
M  V30 459 H 42.9999 4.44329 1.94165 0
M  V30 460 N 44.343 -0.763751 1.37857 0
M  V30 461 C 45.291 -1.89864 1.34367 0
M  V30 462 C 46.285 -1.67816 0.231143 0
M  V30 463 O 47.491 -1.75508 0.399617 0
M  V30 464 H 43.866 -0.624501 0.41893 0
M  V30 465 H 45.837 -1.89925 2.30155 0
M  V30 466 C 44.586 -3.27227 1.1755 0
M  V30 467 H 43.909 -3.44773 2.02414 0
M  V30 468 H 45.349 -4.06911 1.1916 0
M  V30 469 C 43.808 -3.36692 -0.118311 0
M  V30 470 O 44.338 -3.86374 -1.09902 0
M  V30 471 N 42.544 -2.90092 -0.171717 0
M  V30 472 H 42.091 -2.49853 0.627012 0
M  V30 473 H 42.049 -2.96806 -1.03699 0
M  V30 474 N 45.8211 -1.22559 -0.990812 0
M  V30 475 C 46.7311 -1.01394 -2.11557 0
M  V30 476 C 47.7471 0.0383962 -1.73958 0
M  V30 477 O 48.9231 -0.154787 -2.00804 0
M  V30 478 C 45.9881 -0.596569 -3.41529 0
M  V30 479 C 45.0491 -1.72276 -3.93217 0
M  V30 480 C 44.2821 -1.32521 -5.16985 0
M  V30 481 O 44.5051 -0.204909 -5.70032 0
M  V30 482 O 43.4391 -2.14247 -5.62478 0
M  V30 483 H 47.2651 -1.95633 -2.32296 0
M  V30 484 H 44.8501 -1.01172 -1.0993 0
M  V30 485 H 46.7321 -0.374263 -4.19735 0
M  V30 486 H 45.4071 0.316939 -3.22145 0
M  V30 487 H 44.3141 -1.99961 -3.16174 0
M  V30 488 H 45.6471 -2.61421 -4.17037 0
M  V30 489 N 47.2992 1.18797 -1.03562 0
M  V30 490 C 48.5242 1.9314 -0.755764 0
M  V30 491 C 48.9492 1.7537 0.68022 0
M  V30 492 O 48.3072 1.06046 1.47051 0
M  V30 493 C 48.3552 3.42747 -1.12058 0
M  V30 494 O 47.4592 4.11683 -0.243124 0
M  V30 495 H 46.8002 0.602724 -0.278604 0
M  V30 496 H 49.3302 1.50678 -1.3841 0
M  V30 497 H 49.3402 3.93437 -1.08035 0
M  V30 498 H 48.0152 3.55002 -2.16672 0
M  V30 499 H 46.5922 3.71323 -0.342539 0
M  V30 500 N 48.7773 0.814389 1.34928 0
M  V30 501 C 50.1883 0.458364 1.80986 0
M  V30 502 C 50.5393 -1.02042 1.67577 0
M  V30 503 O 49.6643 -1.79352 1.21086 0
M  V30 504 C 50.2593 0.825212 3.28597 0
M  V30 505 C 48.8183 0.521677 3.72767 0
M  V30 506 C 47.9653 1.04668 2.56788 0
M  V30 507 H 50.9163 1.00533 1.22795 0
M  V30 508 H 50.9373 0.12571 3.80292 0
M  V30 509 H 50.4493 1.90154 3.38324 0
M  V30 510 H 48.5503 -0.545589 3.68584 0
M  V30 511 H 48.6633 1.05977 4.67232 0
M  V30 512 H 47.0273 0.468622 2.50352 0
M  V30 513 H 47.8103 2.12927 2.6929 0
M  V30 514 N 50.2554 -1.46986 0.568584 0
M  V30 515 C 51.5034 -2.02041 0.0487022 0
M  V30 516 C 51.8244 -1.44408 -1.31039 0
M  V30 517 O 51.0944 -0.623477 -1.85714 0
M  V30 518 H 49.6744 -0.746849 0.015014 0
M  V30 519 H 52.3364 -1.80257 0.741168 0
M  V30 520 H 51.4324 -3.12085 -0.0308961 0
M  V30 521 N 51.7335 -0.305618 -1.54608 0
M  V30 522 C 52.6655 0.602161 -2.21149 0
M  V30 523 C 53.6785 1.09394 -1.20569 0
M  V30 524 O 54.8675 1.0106 -1.47136 0
M  V30 525 C 51.9675 1.83692 -2.84799 0
M  V30 526 C 51.1405 1.48686 -4.11353 0
M  V30 527 C 50.1995 2.57725 -4.58764 0
M  V30 528 O 49.2255 2.22623 -5.23858 0
M  V30 529 N 50.4275 3.88346 -4.31471 0
M  V30 530 H 53.1925 0.0324966 -2.99682 0
M  V30 531 H 50.7535 -0.128021 -1.61393 0
M  V30 532 H 52.7455 2.55994 -3.13448 0
M  V30 533 H 51.3155 2.31486 -2.10078 0
M  V30 534 H 50.5355 0.596269 -3.89664 0
M  V30 535 H 51.8235 1.22842 -4.93748 0
M  V30 536 H 51.2215 4.19671 -3.79331 0
M  V30 537 H 49.7785 4.56932 -4.64818 0
M  V30 538 N 53.2116 1.57565 -0.0334293 0
M  V30 539 C 54.1596 2.1164 0.96496 0
M  V30 540 C 55.1536 1.04398 1.33407 0
M  V30 541 O 56.3596 1.22828 1.3158 0
M  V30 542 H 52.7346 0.676222 0.32898 0
M  V30 543 H 54.7056 2.94455 0.483614 0
M  V30 544 C 53.4546 2.66207 2.23672 0
M  V30 545 H 52.7776 3.48378 1.96145 0
M  V30 546 H 54.2176 3.07685 2.9173 0
M  V30 547 C 52.6766 1.59151 2.96939 0
M  V30 548 O 53.2066 0.993858 3.89211 0
M  V30 549 N 51.4126 1.31093 2.59351 0
M  V30 550 H 50.9596 1.7988 1.84393 0
M  V30 551 H 50.9176 0.596889 3.08682 0
M  V30 552 N 54.6897 -0.239769 1.55765 0
M  V30 553 C 55.6217 -1.32001 1.87372 0
M  V30 554 C 56.6347 -1.43944 0.760522 0
M  V30 555 O 57.8237 -1.45167 1.0387 0
M  V30 556 C 54.9237 -2.69779 2.05115 0
M  V30 557 C 54.0967 -2.80014 3.36022 0
M  V30 558 C 53.1557 -3.98684 3.4342 0
M  V30 559 O 52.1817 -3.87877 4.16582 0
M  V30 560 N 53.3837 -5.12176 2.73232 0
M  V30 561 H 56.1487 -1.0522 2.80622 0
M  V30 562 H 53.7097 -0.429857 1.56089 0
M  V30 563 H 55.7017 -3.47517 2.07399 0
M  V30 564 H 54.2717 -2.89237 1.18577 0
M  V30 565 H 53.4917 -1.88896 3.45994 0
M  V30 566 H 54.7797 -2.83808 4.22292 0
M  V30 567 H 54.1777 -5.2385 2.13536 0
M  V30 568 H 52.7347 -5.88022 2.81199 0
M  V30 569 N 56.1678 -1.49265 -0.50573 0
M  V30 570 C 57.1148 -1.65585 -1.6078 0
M  V30 571 C 58.0848 -0.497396 -1.58478 0
M  V30 572 O 59.2698 -0.72385 -1.76536 0
M  V30 573 C 56.4098 -1.72408 -2.98948 0
M  V30 574 C 55.5228 -2.99525 -3.11301 0
M  V30 575 C 54.6578 -2.97356 -4.40174 0
M  V30 576 C 53.6968 -4.19074 -4.46143 0
M  V30 577 N 52.8338 -4.14841 -5.66437 0
M  V30 578 H 57.6738 -2.59688 -1.46172 0
M  V30 579 H 55.2108 -1.28761 -0.711261 0
M  V30 580 H 57.1688 -1.74344 -3.79025 0
M  V30 581 H 55.7988 -0.817753 -3.1227 0
M  V30 582 H 54.8508 -3.07222 -2.24318 0
M  V30 583 H 56.1628 -3.89518 -3.11572 0
M  V30 584 H 55.3168 -2.97829 -5.28567 0
M  V30 585 H 54.0558 -2.05133 -4.42461 0
M  V30 586 H 53.0608 -4.1885 -3.56153 0
M  V30 587 H 54.2858 -5.12483 -4.45575 0
M  V30 588 H 52.2318 -3.25453 -5.69575 0
M  V30 589 H 52.1488 -4.98564 -5.68304 0
M  V30 590 H 53.4168 -4.1941 -6.57051 0
M  V30 591 N 57.6459 0.756429 -1.3826 0
M  V30 592 C 58.5559 1.9009 -1.37488 0
M  V30 593 C 59.5719 1.71855 -0.272366 0
M  V30 594 O 60.7479 1.94827 -0.510318 0
M  V30 595 C 57.8129 3.25421 -1.19592 0
M  V30 596 C 56.8739 3.56202 -2.39622 0
M  V30 597 C 56.1069 4.85075 -2.2257 0
M  V30 598 O 56.3299 5.57246 -1.21793 0
M  V30 599 O 55.2639 5.15269 -3.11098 0
M  V30 600 H 59.0899 1.93695 -2.33914 0
M  V30 601 H 56.6749 0.901313 -1.1915 0
M  V30 602 H 58.5569 4.06337 -1.11661 0
M  V30 603 H 57.2319 3.22634 -0.262486 0
M  V30 604 H 56.1389 2.75458 -2.53128 0
M  V30 605 H 57.4719 3.63747 -3.31586 0
M  V30 606 N 59.124 1.23083 0.984299 0
M  V30 607 C 60.034 1.02515 2.11016 0
M  V30 608 C 61.05 -0.0291702 1.73976 0
M  V30 609 O 62.226 0.165434 2.00719 0
M  V30 610 C 59.291 0.614673 3.41208 0
M  V30 611 C 58.352 1.74359 3.92297 0
M  V30 612 C 57.585 1.35261 5.16275 0
M  V30 613 O 57.808 0.235136 5.69915 0
M  V30 614 O 56.742 2.17227 5.61334 0
M  V30 615 H 60.568 1.96862 2.31255 0
M  V30 616 H 58.153 1.01753 1.09392 0
M  V30 617 H 60.035 0.396518 4.1953 0
M  V30 618 H 58.71 -0.299851 3.22308 0
M  V30 619 H 57.617 2.01635 3.1511 0
M  V30 620 H 58.95 2.63629 4.15645 0
M  V30 621 N 60.6021 -1.18246 1.0419 0
M  V30 622 C 61.5491 -2.2192 0.634037 0
M  V30 623 C 62.5191 -1.62179 -0.358765 0
M  V30 624 O 63.7041 -1.89122 -0.252466 0
M  V30 625 C 60.8441 -3.451 0.00445535 0
M  V30 626 C 59.9571 -4.19174 1.04487 0
M  V30 627 C 59.0921 -5.29813 0.383676 0
M  V30 628 C 58.1311 -5.9566 1.4091 0
M  V30 629 N 57.2681 -6.97834 0.772784 0
M  V30 630 H 62.1081 -2.56164 1.52263 0
M  V30 631 H 59.6451 -1.25843 0.761701 0
M  V30 632 H 61.6031 -4.15485 -0.377919 0
M  V30 633 H 60.2331 -3.11472 -0.847652 0
M  V30 634 H 59.2851 -3.47604 1.54518 0
M  V30 635 H 60.5971 -4.64267 1.82368 0
M  V30 636 H 59.7511 -6.06677 -0.0528366 0
M  V30 637 H 58.4901 -4.85825 -0.427208 0
M  V30 638 H 57.4951 -5.17535 1.85574 0
M  V30 639 H 58.7201 -6.4173 2.22171 0
M  V30 640 H 56.6661 -6.55998 -0.0177708 0
M  V30 641 H 56.5831 -7.41186 1.48928 0
M  V30 642 H 57.8511 -7.78665 0.36071 0
M  V30 643 N 62.0802 -0.821533 -1.34494 0
M  V30 644 C 63.0102 -0.257138 -2.3208 0
M  V30 645 C 63.9912 0.625645 -1.58176 0
M  V30 646 O 65.1762 0.552811 -1.86166 0
M  V30 647 C 62.3062 0.582958 -3.42372 0
M  V30 648 C 61.2602 -0.202571 -4.2752 0
M  V30 649 C 60.5862 0.760179 -5.29269 0
M  V30 650 C 61.8862 -1.40998 -5.02908 0
M  V30 651 H 63.5802 -1.07247 -2.79532 0
M  V30 652 H 61.1262 -0.517163 -1.34393 0
M  V30 653 H 63.0792 0.987972 -4.09655 0
M  V30 654 H 61.8032 1.43133 -2.93565 0
M  V30 655 H 60.4622 -0.588936 -3.61838 0
M  V30 656 H 60.1102 1.60447 -4.76724 0
M  V30 657 H 59.8102 0.238809 -5.87115 0
M  V30 658 H 61.3342 1.16308 -5.9942 0
M  V30 659 H 62.7482 -1.07905 -5.63054 0
M  V30 660 H 61.1452 -1.86689 -5.70322 0
M  V30 661 H 62.2152 -2.1889 -4.32684 0
M  V30 662 N 63.5583 1.46682 -0.576371 0
M  V30 663 C 64.7983 2.04306 -0.0621356 0
M  V30 664 C 65.1623 1.4389 1.2712 0
M  V30 665 O 66.3633 1.92675 1.87429 0
M  V30 666 C 64.6343 3.57399 0.00927922 0
M  V30 667 S 66.1933 4.36309 0.466859 0
M  V30 668 H 63.0113 0.710167 -0.0344016 0
M  V30 669 H 65.6133 1.79807 -0.767437 0
M  V30 670 H 64.3173 3.98889 -0.965178 0
M  V30 671 H 63.8483 3.86424 0.737547 0
M  V30 672 H 65.8633 4.6533 1.72287 0
M  V30 673 N 65.0364 0.313813 1.54444 0
M  V30 674 C 66.2644 -0.293918 2.04802 0
M  V30 675 C 66.6794 -1.46537 1.19047 0
M  V30 676 O 66.0364 -1.81182 0.218939 0
M  V30 677 C 66.0874 -0.737806 3.53891 0
M  V30 678 O 65.8084 0.387038 4.36387 0
M  V30 679 C 67.3094 -1.40936 4.203 0
M  V30 680 H 64.5294 -0.0620057 0.668129 0
M  V30 681 H 67.0734 0.457169 1.99324 0
M  V30 682 H 65.2284 -1.43889 3.59687 0
M  V30 683 H 65.6424 0.0391274 5.24485 0
M  V30 684 H 67.1164 -1.67099 5.26101 0
M  V30 685 H 67.5934 -2.35355 3.70816 0
M  V30 686 H 68.1994 -0.751117 4.18615 0
M  V30 687 N 66.5145 -1.57545 0.0417849 0
M  V30 688 C 67.4245 -2.14451 -0.951213 0
M  V30 689 C 68.4405 -1.09992 -1.34825 0
M  V30 690 O 69.6165 -1.42114 -1.42708 0
M  V30 691 C 66.6815 -2.67063 -2.21084 0
M  V30 692 C 65.7425 -3.86284 -1.87304 0
M  V30 693 C 64.9755 -4.36378 -3.07261 0
M  V30 694 O 65.1985 -3.85587 -4.20332 0
M  V30 695 O 64.1325 -5.28077 -2.88822 0
M  V30 696 H 67.9585 -2.99601 -0.497287 0
M  V30 697 H 65.5435 -1.48317 -0.179567 0
M  V30 698 H 67.4255 -3.00914 -2.95006 0
M  V30 699 H 66.1005 -1.84989 -2.65633 0
M  V30 700 H 65.0075 -3.57338 -1.10727 0
M  V30 701 H 66.3405 -4.6956 -1.47562 0
M  V30 702 N 67.9926 0.231505 -1.5589 0
M  V30 703 C 68.9406 1.30649 -1.92441 0
M  V30 704 C 69.9346 1.49037 -0.805254 0
M  V30 705 O 71.1406 1.50329 -0.990007 0
M  V30 706 H 67.5156 0.437812 -0.611412 0
M  V30 707 H 69.4866 0.970973 -2.82161 0
M  V30 708 C 68.2356 2.65179 -2.24889 0
M  V30 709 H 67.5586 2.51835 -3.10514 0
M  V30 710 H 68.9986 3.39234 -2.54355 0
M  V30 711 C 67.4576 3.19439 -1.07054 0
M  V30 712 O 67.9876 4.00371 -0.326499 0
M  V30 713 N 66.1936 2.77675 -0.85703 0
M  V30 714 H 65.7406 2.11969 -1.46379 0
M  V30 715 H 65.6986 3.14321 -0.0703223 0
M  V30 716 N 69.4707 1.49531 0.497807 0
M  V30 717 C 70.7177 1.59179 1.25173 0
M  V30 718 C 71.0457 0.279932 1.92475 0
M  V30 719 O 70.3007 -0.732383 1.81479 0
M  V30 720 C 70.5997 2.70252 2.33878 0
M  V30 721 C 70.2657 4.11644 1.84012 0
M  V30 722 C 68.9277 4.50121 1.70132 0
M  V30 723 C 71.2797 5.00121 1.46725 0
M  V30 724 C 68.6077 5.74845 1.17348 0
M  V30 725 C 70.9597 6.25366 0.95392 0
M  V30 726 C 69.6237 6.6267 0.801538 0
M  V30 727 H 68.8937 0.582478 0.45804 0
M  V30 728 H 71.5407 1.83373 0.551948 0
M  V30 729 H 69.8457 2.40041 3.09657 0
M  V30 730 H 71.5427 2.74925 2.9192 0
M  V30 731 H 68.1327 3.81274 1.95775 0
M  V30 732 H 72.3167 4.71048 1.56294 0
M  V30 733 H 67.5727 6.02444 1.04264 0
M  V30 734 H 71.7467 6.93301 0.656225 0
M  V30 735 H 69.3737 7.59197 0.390351 0
M  V30 736 N 70.9488 -0.749086 1.3866 0
M  V30 737 C 72.1768 -1.53834 1.38358 0
M  V30 738 C 72.5918 -1.88783 -0.0255219 0
M  V30 739 O 71.9488 -1.53101 -0.993292 0
M  V30 740 C 71.9998 -2.83468 2.2434 0
M  V30 741 O 71.7208 -2.50008 3.5976 0
M  V30 742 C 73.2218 -3.7758 2.32267 0
M  V30 743 H 70.4418 -0.47585 0.473083 0
M  V30 744 H 72.9858 -0.926726 1.82297 0
M  V30 745 H 71.1408 -3.40995 1.83851 0
M  V30 746 H 71.5548 -3.33182 4.05081 0
M  V30 747 H 73.0288 -4.65478 2.96706 0
M  V30 748 H 73.5058 -4.18334 1.33765 0
M  V30 749 H 74.1118 -3.25976 2.73166 0
M  V30 750 N 72.4269 -1.23603 -0.977757 0
M  V30 751 C 73.8429 -0.999251 -1.24447 0
M  V30 752 C 74.0429 0.298053 -1.99283 0
M  V30 753 O 73.0989 1.01681 -2.31122 0
M  V30 754 C 74.4119 -2.20784 -2.04144 0
M  V30 755 C 75.9599 -2.25303 -2.17273 0
M  V30 756 C 76.4349 -3.45755 -3.00362 0
M  V30 757 N 77.9259 -3.4601 -3.07947 0
M  V30 758 C 78.6609 -4.35868 -3.72568 0
M  V30 759 N 78.1569 -5.35966 -4.38991 0
M  V30 760 N 79.9499 -4.23605 -3.6948 0
M  V30 761 H 72.1009 -2.06986 -0.476483 0
M  V30 762 H 74.3639 -0.907801 -0.273134 0
M  V30 763 H 74.0699 -3.14945 -1.56533 0
M  V30 764 H 73.9439 -2.22085 -3.04891 0
M  V30 765 H 76.3309 -1.3168 -2.64092 0
M  V30 766 H 76.4119 -2.28033 -1.15907 0
M  V30 767 H 76.0559 -4.39687 -2.5424 0
M  V30 768 H 75.9859 -3.40266 -4.01904 0
M  V30 769 H 78.4769 -2.73588 -2.60688 0
M  V30 770 H 78.7899 -6.00783 -4.86086 0
M  V30 771 H 77.1349 -5.39863 -4.37691 0
M  V30 772 H 80.3259 -3.44647 -3.16759 0
M  V30 773 H 80.4989 -4.93836 -4.1956 0
M  V30 774 N 73.905 1.17692 -1.04816 0
M  V30 775 C 75.154 1.87192 -0.751132 0
M  V30 776 C 75.467 1.8169 0.724441 0
M  V30 777 O 76.673 2.46625 1.13527 0
M  V30 778 C 75.129 3.35857 -1.29338 0
M  V30 779 C 74.737 3.4987 -2.79812 0
M  V30 780 C 76.481 4.10709 -1.07322 0
M  V30 781 C 74.388 4.92536 -3.27356 0
M  V30 782 H 73.318 0.701162 -0.277288 0
M  V30 783 H 75.969 1.32932 -1.26496 0
M  V30 784 H 74.351 3.89631 -0.707376 0
M  V30 785 H 75.525 3.06332 -3.44235 0
M  V30 786 H 73.84 2.88433 -3.00325 0
M  V30 787 H 76.437 5.15952 -1.4035 0
M  V30 788 H 76.78 4.16299 -0.0108001 0
M  V30 789 H 77.313 3.6313 -1.62423 0
M  V30 790 H 74.052 4.92119 -4.33012 0
M  V30 791 H 73.572 5.3676 -2.67673 0
M  V30 792 H 75.251 5.61288 -3.21815 0
M  V30 793 N 75.3831 0.828654 1.34056 0
M  V30 794 C 76.3131 0.269443 2.3194 0
M  V30 795 C 77.2941 -0.617247 1.58506 0
M  V30 796 O 78.4791 -0.542931 1.86456 0
M  V30 797 C 75.6091 -0.564793 3.42677 0
M  V30 798 C 74.5631 0.225241 4.27407 0
M  V30 799 C 73.8891 -0.7321 5.29664 0
M  V30 800 C 75.1891 1.43663 5.02154 0
M  V30 801 H 76.8831 1.08728 2.7896 0
M  V30 802 H 74.4291 0.524283 1.34117 0
M  V30 803 H 76.3821 -0.966233 4.10173 0
M  V30 804 H 75.1061 -1.41574 2.9432 0
M  V30 805 H 73.7651 0.608117 3.61521 0
M  V30 806 H 73.4131 -1.57916 4.77568 0
M  V30 807 H 73.1131 -0.20767 5.87233 0
M  V30 808 H 74.6371 -1.13128 6.00029 0
M  V30 809 H 76.0511 1.1089 5.62473 0
M  V30 810 H 74.4481 1.89711 5.69324 0
M  V30 811 H 75.5181 2.21181 4.31517 0
M  V30 812 N 76.8612 -1.46375 0.584142 0
M  V30 813 C 78.1382 -1.956 0.0033388 0
M  V30 814 C 78.5182 -1.52679 -1.45782 0
M  V30 815 O 77.8662 -0.77816 -2.14842 0
M  V30 816 C 78.0762 -3.48551 0.176891 0
M  V30 817 C 79.4242 -4.24576 0.0454609 0
M  V30 818 O 80.4482 -3.56043 0.105801 0
M  V30 819 O 79.3072 -5.46427 -0.0890376 0
M  V30 820 H 76.4012 -0.825547 -0.0490066 0
M  V30 821 H 78.9472 -1.56652 0.65256 0
M  V30 822 H 77.7192 -3.72683 1.1926 0
M  V30 823 H 77.3422 -3.94332 -0.508695 0
M  V30 824 N 78.3393 -0.321999 -1.54275 0
M  V30 825 C 79.5643 0.285791 -2.05422 0
M  V30 826 C 79.9893 1.45124 -1.19669 0
M  V30 827 O 79.3473 1.80132 -0.205441 0
M  V30 828 C 79.3953 0.69956 -3.53749 0
M  V30 829 O 78.4993 1.8021 -3.70942 0
M  V30 830 H 77.8403 0.0518962 -0.661969 0
M  V30 831 H 80.3703 -0.469954 -1.9913 0
M  V30 832 H 80.3803 0.982649 -3.9599 0
M  V30 833 H 79.0553 -0.152864 -4.15619 0
M  V30 834 H 77.6323 1.51794 -3.40607 0
M  V30 835 N 79.8174 1.5752 -0.0501392 0
M  V30 836 C 80.7474 2.14502 0.922566 0
M  V30 837 C 81.7284 1.06642 1.3252 0
M  V30 838 O 82.9134 1.34577 1.4001 0
M  V30 839 C 80.0434 2.68916 2.19776 0
M  V30 840 C 78.9974 3.8175 1.93523 0
M  V30 841 C 78.3234 4.22677 3.27487 0
M  V30 842 C 79.6234 5.06932 1.25765 0
M  V30 843 H 81.3174 2.9603 0.447952 0
M  V30 844 H 78.8634 1.42401 0.214024 0
M  V30 845 H 80.8164 3.07419 2.88222 0
M  V30 846 H 79.5404 1.84578 2.69441 0
M  V30 847 H 78.1994 3.43718 1.27489 0
M  V30 848 H 77.8474 3.35291 3.74952 0
M  V30 849 H 77.5474 4.98725 3.1072 0
M  V30 850 H 79.0714 4.63779 3.97166 0
M  V30 851 H 80.4854 5.42888 1.84244 0
M  V30 852 H 78.8824 5.88116 1.19328 0
M  V30 853 H 79.9524 4.84337 0.233536 0
M  V30 854 N 81.2955 -0.223234 1.56011 0
M  V30 855 C 82.2255 -1.27988 1.95298 0
M  V30 856 C 83.2065 -1.48976 0.820979 0
M  V30 857 O 84.3915 -1.61188 1.08315 0
M  V30 858 C 81.5215 -2.63 2.26822 0
M  V30 859 C 80.4755 -2.56671 3.42497 0
M  V30 860 C 79.8015 -3.95697 3.59622 0
M  V30 861 C 81.1015 -2.11601 4.77517 0
M  V30 862 H 82.7955 -0.953525 2.8381 0
M  V30 863 H 80.3415 -0.457244 1.36548 0
M  V30 864 H 82.2945 -3.37077 2.52898 0
M  V30 865 H 81.0185 -2.9732 1.35161 0
M  V30 866 H 79.6775 -1.85051 3.16467 0
M  V30 867 H 79.3255 -4.27322 2.6534 0
M  V30 868 H 79.0255 -3.92345 4.37424 0
M  V30 869 H 80.5495 -4.71438 3.88044 0
M  V30 870 H 81.9635 -2.7542 5.02809 0
M  V30 871 H 80.3605 -2.19311 5.5859 0
M  V30 872 H 81.4305 -1.06824 4.72987 0
M  V30 873 N 82.7736 -1.49793 -0.48987 0
M  V30 874 C 84.0506 -1.50348 -1.25119 0
M  V30 875 C 84.4306 -0.237466 -2.0976 0
M  V30 876 O 83.7786 0.77981 -2.14782 0
M  V30 877 C 83.9886 -2.78872 -2.09837 0
M  V30 878 C 85.3366 -3.288 -2.68655 0
M  V30 879 O 86.3606 -2.80065 -2.20096 0
M  V30 880 O 85.2196 -4.13707 -3.57083 0
M  V30 881 H 82.3136 -0.602242 -0.566775 0
M  V30 882 H 84.8596 -1.62067 -0.503229 0
M  V30 883 H 83.6316 -3.62499 -1.47343 0
M  V30 884 H 83.2546 -2.70066 -2.91805 0
M  V30 885 N 84.2517 0.741722 -1.39055 0
M  V30 886 C 85.4997 1.49818 -1.35643 0
M  V30 887 C 85.8207 1.94938 0.0491642 0
M  V30 888 O 85.0907 1.68505 0.999141 0
M  V30 889 H 83.6707 0.555755 -0.499144 0
M  V30 890 H 86.3327 0.880957 -1.73854 0
M  V30 891 H 85.4287 2.38348 -2.01486 0
M  V30 892 N 85.7298 1.2412 0.971189 0
M  V30 893 C 86.9598 1.10415 1.7462 0
M  V30 894 C 87.3678 -0.346462 1.86001 0
M  V30 895 O 86.7108 -1.25104 1.34517 0
M  V30 896 C 86.7728 1.66596 3.18568 0
M  V30 897 C 86.4368 3.15446 3.3067 0
M  V30 898 C 87.4338 4.12636 3.16271 0
M  V30 899 C 85.1188 3.55337 3.55022 0
M  V30 900 C 87.1128 5.47699 3.26044 0
M  V30 901 C 84.7998 4.90542 3.64434 0
M  V30 902 C 85.7978 5.86532 3.49956 0
M  V30 903 O 85.4858 7.19279 3.59017 0
M  V30 904 H 85.2178 0.386616 0.55453 0
M  V30 905 H 87.7718 1.64633 1.22821 0
M  V30 906 H 86.0018 1.06808 3.71657 0
M  V30 907 H 87.6908 1.48232 3.77865 0
M  V30 908 H 88.4568 3.8316 2.97344 0
M  V30 909 H 84.3358 2.8113 3.65359 0
M  V30 910 H 87.8798 6.22603 3.14661 0
M  V30 911 H 83.7768 5.19691 3.82873 0
M  V30 912 H 84.5448 7.27153 3.75754 0
M  V30 913 N 87.2079 -1.17134 1.05439 0
M  V30 914 C 88.4849 -1.83411 0.679699 0
M  V30 915 C 88.8649 -1.9368 -0.839726 0
M  V30 916 O 88.2129 -1.47325 -1.74664 0
M  V30 917 C 88.4229 -3.20918 1.37159 0
M  V30 918 C 89.7709 -3.96796 1.51123 0
M  V30 919 O 90.7949 -3.30406 1.3308 0
M  V30 920 O 89.6539 -5.15778 1.80651 0
M  V30 921 H 86.7479 -0.79154 0.239569 0
M  V30 922 H 89.2939 -1.24411 1.15413 0
M  V30 923 H 88.0659 -3.08428 2.40807 0
M  V30 924 H 87.6889 -3.87587 0.886674 0
M  V30 925 N 88.686 -0.835752 -1.33615 0
M  V30 926 C 89.634 -0.255238 -2.31195 0
M  V30 927 C 90.628 0.61107 -1.57995 0
M  V30 928 O 91.834 0.500979 -1.72888 0
M  V30 929 H 88.209 -0.0638085 -0.749288 0
M  V30 930 H 90.18 -1.09283 -2.77669 0
M  V30 931 C 88.929 0.55754 -3.43201 0
M  V30 932 H 88.252 -0.0997553 -3.99676 0
M  V30 933 H 89.692 0.929622 -4.13683 0
M  V30 934 C 88.151 1.73515 -2.88781 0
M  V30 935 O 88.681 2.83376 -2.84712 0
M  V30 936 N 86.887 1.55603 -2.4543 0
M  V30 937 H 86.434 0.662354 -2.48939 0
M  V30 938 H 86.392 2.34545 -2.09371 0
M  V30 939 N 90.1641 1.46063 -0.591896 0
M  V30 940 C 91.5801 1.57561 -0.254288 0
M  V30 941 C 91.7801 1.58565 1.24336 0
M  V30 942 O 90.8361 1.50753 2.02558 0
M  V30 943 C 92.1491 2.86549 -0.911611 0
M  V30 944 C 93.6971 3.00197 -0.886059 0
M  V30 945 C 94.1721 4.31933 -1.5231 0
M  V30 946 N 95.6631 4.38654 -1.48786 0
M  V30 947 C 96.3981 5.39222 -1.95006 0
M  V30 948 N 95.8941 6.46414 -2.49241 0
M  V30 949 N 97.6871 5.3048 -1.85868 0
M  V30 950 H 89.8381 1.43655 -1.56451 0
M  V30 951 H 92.1011 0.68583 -0.654478 0
M  V30 952 H 91.8071 2.91651 -1.96551 0
M  V30 953 H 91.6811 3.74794 -0.425368 0
M  V30 954 H 94.0681 2.9467 0.159246 0
M  V30 955 H 94.1491 2.13403 -1.41041 0
M  V30 956 H 93.7931 4.38217 -2.56765 0
M  V30 957 H 93.7231 5.17516 -0.973891 0
M  V30 958 H 96.2141 3.61793 -1.09151 0
M  V30 959 H 96.5271 7.19376 -2.82344 0
M  V30 960 H 94.8721 6.47208 -2.53272 0
M  V30 961 H 98.0631 4.45643 -1.43248 0
M  V30 962 H 98.2361 6.08711 -2.22204 0
M  V30 963 N 91.6422 0.330177 1.54103 0
M  V30 964 C 92.5722 -0.525353 2.27513 0
M  V30 965 C 93.5532 -1.11383 1.2856 0
M  V30 966 O 94.7382 -1.13773 1.57383 0
M  V30 967 C 91.8682 -1.6831 3.03791 0
M  V30 968 C 90.8222 -1.2236 4.10137 0
M  V30 969 C 90.1482 -2.46882 4.74293 0
M  V30 970 C 91.4482 -0.333697 5.21233 0
M  V30 971 H 93.1422 0.087013 2.99274 0
M  V30 972 H 90.6882 0.0432893 1.43935 0
M  V30 973 H 92.6412 -2.28795 3.5388 0
M  V30 974 H 91.3652 -2.32216 2.29659 0
M  V30 975 H 90.0242 -0.64165 3.60941 0
M  V30 976 H 89.6722 -3.09165 3.96769 0
M  V30 977 H 89.3722 -2.16825 5.46133 0
M  V30 978 H 90.8962 -3.08117 5.27159 0
M  V30 979 H 92.3102 -0.845013 5.67038 0
M  V30 980 H 90.7072 -0.125612 5.99969 0
M  V30 981 H 91.7772 0.633724 4.80741 0
M  V30 982 N 93.1203 -1.57491 0.0584922 0
M  V30 983 C 94.5363 -1.56792 -0.298091 0
M  V30 984 C 94.7363 -1.06679 -1.70944 0
M  V30 985 O 93.7923 -0.726672 -2.41818 0
M  V30 986 C 95.1053 -3.00461 -0.119879 0
M  V30 987 C 96.6533 -3.1242 -0.190428 0
M  V30 988 C 97.1283 -4.57982 -0.0406567 0
M  V30 989 N 98.6193 -4.63099 -0.0966958 0
M  V30 990 C 99.3543 -5.734 -0.00502943 0
M  V30 991 N 98.8503 -6.9266 0.139402 0
M  V30 992 N 100.643 -5.62067 -0.0611391 0
M  V30 993 H 92.7943 -1.88386 0.98105 0
M  V30 994 H 95.0573 -0.867865 0.381463 0
M  V30 995 H 94.7633 -3.41187 0.85349 0
M  V30 996 H 94.6373 -3.66843 -0.877833 0
M  V30 997 H 97.0243 -2.71589 -1.15427 0
M  V30 998 H 97.1053 -2.48702 0.598405 0
M  V30 999 H 96.7493 -4.995 0.919897 0
M  V30 1000 H 96.6793 -5.19715 -0.848727 0
M  V30 1001 H 99.1703 -3.77331 -0.207277 0
M  V30 1002 H 99.4833 -7.72536 0.201855 0
M  V30 1003 H 97.8283 -6.94781 0.174586 0
M  V30 1004 H 101.019 -4.67782 -0.172583 0
M  V30 1005 H 101.192 -6.47999 0.0137562 0
M  V30 1006 N 94.5984 0.214957 -1.56127 0
M  V30 1007 C 96.0094 0.781386 -1.69562 0
M  V30 1008 C 96.3604 1.84707 -0.66165 0
M  V30 1009 O 95.4854 2.156 0.185927 0
M  V30 1010 C 96.0804 1.42411 -3.07416 0
M  V30 1011 C 94.6394 1.93786 -3.22683 0
M  V30 1012 C 93.7864 0.800438 -2.65496 0
M  V30 1013 H 96.7374 -0.00980633 -1.58697 0
M  V30 1014 H 96.7584 2.29309 -3.0364 0
M  V30 1015 H 96.2704 0.64826 -3.82648 0
M  V30 1016 H 94.3714 2.74152 -2.52332 0
M  V30 1017 H 94.4844 2.1133 -4.29973 0
M  V30 1018 H 92.8484 1.2095 -2.2415 0
M  V30 1019 H 93.6314 0.0371471 -3.4328 0
M  V30 1020 N 96.0765 1.50051 0.48192 0
M  V30 1021 C 97.3245 1.60181 1.23234 0
M  V30 1022 C 97.6455 0.299176 1.92691 0
M  V30 1023 O 96.9155 -0.682708 1.83619 0
M  V30 1024 H 95.4955 0.590232 0.457859 0
M  V30 1025 H 98.1575 1.86775 0.556881 0
M  V30 1026 H 97.2535 2.40753 1.98607 0
M  V30 1027 N 97.5546 -0.734337 1.39446 0
M  V30 1028 C 98.8016 -1.49391 1.36706 0
M  V30 1029 C 99.1296 -1.94465 -0.0367813 0
M  V30 1030 O 98.3846 -1.67154 -1.01774 0
M  V30 1031 C 98.6836 -2.74711 2.28623 0
M  V30 1032 C 98.3496 -2.48501 3.76242 0
M  V30 1033 C 97.0116 -2.41062 4.16464 0
M  V30 1034 C 99.3636 -2.26098 4.69606 0
M  V30 1035 C 96.6916 -2.09262 5.48112 0
M  V30 1036 C 99.0436 -1.95814 6.01531 0
M  V30 1037 C 97.7076 -1.86845 6.40816 0
M  V30 1038 H 96.9776 -0.546661 0.500243 0
M  V30 1039 H 99.6246 -0.842788 1.71957 0
M  V30 1040 H 97.9296 -3.44569 1.86492 0
M  V30 1041 H 99.6266 -3.32741 2.23796 0
M  V30 1042 H 96.2166 -2.55169 3.44364 0
M  V30 1043 H 100.401 -2.30812 4.39363 0
M  V30 1044 H 95.6566 -2.00841 5.77471 0
M  V30 1045 H 99.8306 -1.77488 6.73403 0
M  V30 1046 H 97.4576 -1.6197 7.42745 0
M  V30 1047 N 99.0327 -1.24633 -0.964593 0
M  V30 1048 C 100.281 -1.08573 -1.70459 0
M  V30 1049 C 100.602 0.375655 -1.91347 0
M  V30 1050 O 99.8717 1.26779 -1.49345 0
M  V30 1051 H 98.4517 -0.398784 -0.631649 0
M  V30 1052 H 101.114 -1.56601 -1.16026 0
M  V30 1053 H 100.21 -1.58623 -2.68785 0
M  V30 1054 N 100.511 1.16574 -1.06058 0
M  V30 1055 C 101.759 1.86677 -0.77434 0
M  V30 1056 C 102.08 1.81959 0.701147 0
M  V30 1057 O 101.35 1.2515 1.50713 0
M  V30 1058 H 99.9298 0.691134 -0.283449 0
M  V30 1059 H 102.592 1.41378 -1.34158 0
M  V30 1060 H 101.688 2.92181 -1.09711 0
M  V30 1061 N 101.989 0.842826 1.3317 0
M  V30 1062 C 103.4 0.496651 1.79973 0
M  V30 1063 C 103.751 -0.984641 1.69703 0
M  V30 1064 O 102.876 -1.76743 1.24863 0
M  V30 1065 C 103.471 0.894727 3.26772 0
M  V30 1066 C 102.03 0.600629 3.71577 0
M  V30 1067 C 101.177 1.10091 2.5451 0
M  V30 1068 H 104.128 1.03116 1.20635 0
M  V30 1069 H 104.149 0.206347 3.7994 0
M  V30 1070 H 103.661 1.97287 3.34215 0
M  V30 1071 H 101.762 -0.467284 3.69658 0
M  V30 1072 H 101.875 1.15863 4.64879 0
M  V30 1073 H 100.239 0.52162 2.49301 0
M  V30 1074 H 101.022 2.18591 2.64713 0
M  V30 1075 N 103.467 -1.45747 0.599634 0
M  V30 1076 C 104.713 -2.02592 0.0918643 0
M  V30 1077 C 105.046 -1.46806 -1.27128 0
M  V30 1078 O 104.321 -0.639658 -1.83681 0
M  V30 1079 C 104.604 -3.60073 0.0443398 0
M  V30 1080 C 104.457 -4.26208 1.43759 0
M  V30 1081 C 105.776 -4.35309 -0.647608 0
M  V30 1082 H 102.895 -0.736175 0.034857 0
M  V30 1083 H 105.537 -1.73694 0.770081 0
M  V30 1084 H 103.687 -3.84823 -0.533224 0
M  V30 1085 H 105.359 -4.12668 2.06162 0
M  V30 1086 H 103.602 -3.84916 2.00056 0
M  V30 1087 H 104.273 -5.35069 1.35665 0
M  V30 1088 H 106.749 -4.15805 -0.156776 0
M  V30 1089 H 105.625 -5.45038 -0.649942 0
M  V30 1090 H 105.886 -4.07598 -1.71219 0
M  V30 1091 N 104.945 -0.338344 -1.53925 0
M  V30 1092 C 106.173 0.261298 -2.05243 0
M  V30 1093 C 106.588 1.44625 -1.21363 0
M  V30 1094 O 105.945 1.80811 -0.247736 0
M  V30 1095 C 105.996 0.681412 -3.5502 0
M  V30 1096 O 105.717 -0.456414 -4.35716 0
M  V30 1097 C 107.218 1.34232 -4.22489 0
M  V30 1098 H 104.438 0.0513685 -0.669031 0
M  V30 1099 H 106.982 -0.488822 -1.98572 0
M  V30 1100 H 105.137 1.38148 -3.61931 0
M  V30 1101 H 105.551 -0.122564 -5.24357 0
M  V30 1102 H 107.025 1.58708 -5.28693 0
M  V30 1103 H 107.502 2.29426 -3.74514 0
M  V30 1104 H 108.108 0.684424 -4.19757 0
M  V30 1105 N 106.423 1.57458 -0.0668435 0
M  V30 1106 C 107.333 2.15937 0.916975 0
M  V30 1107 C 108.349 1.12123 1.33058 0
M  V30 1108 O 109.525 1.44366 1.40429 0
M  V30 1109 C 106.59 2.70547 2.16807 0
M  V30 1110 C 105.651 3.89215 1.81135 0
M  V30 1111 C 104.884 4.41211 3.0028 0
M  V30 1112 O 105.107 3.92225 4.14144 0
M  V30 1113 O 104.041 5.32605 2.80384 0
M  V30 1114 H 107.867 3.00354 0.449561 0
M  V30 1115 H 105.452 1.48584 0.155949 0
M  V30 1116 H 107.334 3.0557 2.90181 0
M  V30 1117 H 106.009 1.89192 2.62656 0
M  V30 1118 H 104.916 3.59054 1.05028 0
M  V30 1119 H 106.249 4.71848 1.40073 0
M  V30 1120 N 107.901 -0.206675 1.56239 0
M  V30 1121 C 109.147 -0.930218 1.80208 0
M  V30 1122 C 109.48 -1.83387 0.638981 0
M  V30 1123 O 108.755 -1.91119 -0.361066 0
M  V30 1124 C 109.038 -1.75641 3.1436 0
M  V30 1125 C 108.891 -0.878257 4.41142 0
M  V30 1126 C 110.21 -2.73129 3.45092 0
M  V30 1127 H 107.329 -0.336742 0.655571 0
M  V30 1128 H 109.971 -0.198222 1.88963 0
M  V30 1129 H 108.121 -2.38048 3.07027 0
M  V30 1130 H 109.793 -0.269787 4.6051 0
M  V30 1131 H 108.036 -0.184385 4.33408 0
M  V30 1132 H 108.707 -1.49106 5.3148 0
M  V30 1133 H 111.183 -2.20856 3.52649 0
M  V30 1134 H 110.059 -3.28028 4.40101 0
M  V30 1135 H 110.32 -3.51606 2.68003 0
M  V30 1136 N 109.379 -1.50304 -0.473955 0
M  V30 1137 C 110.326 -1.68959 -1.57231 0
M  V30 1138 C 111.296 -0.530899 -1.57387 0
M  V30 1139 O 112.481 -0.761133 -1.74961 0
M  V30 1140 C 109.621 -1.7871 -2.95223 0
M  V30 1141 C 108.734 -3.06061 -3.04878 0
M  V30 1142 C 107.869 -3.06626 -4.33767 0
M  V30 1143 C 106.908 -4.28443 -4.37154 0
M  V30 1144 N 106.045 -4.26763 -5.5751 0
M  V30 1145 H 110.885 -2.6273 -1.40631 0
M  V30 1146 H 108.422 -1.30241 -0.683789 0
M  V30 1147 H 110.38 -1.82344 -3.75242 0
M  V30 1148 H 109.01 -0.883806 -3.10465 0
M  V30 1149 H 108.062 -3.11911 -2.17751 0
M  V30 1150 H 109.374 -3.96039 -3.0324 0
M  V30 1151 H 108.528 -3.08973 -5.22131 0
M  V30 1152 H 107.267 -2.14473 -4.3801 0
M  V30 1153 H 106.272 -4.2631 -3.47188 0
M  V30 1154 H 107.497 -5.2182 -4.34605 0
M  V30 1155 H 105.443 -3.37462 -5.62544 0
M  V30 1156 H 105.36 -5.10507 -5.57601 0
M  V30 1157 H 106.628 -4.33253 -6.48006 0
M  V30 1158 N 110.857 0.726932 -1.39834 0
M  V30 1159 C 112.085 1.51613 -1.40787 0
M  V30 1160 C 112.5 1.88799 -0.00451505 0
M  V30 1161 O 111.857 1.54662 0.968809 0
M  V30 1162 C 111.908 2.79863 -2.28821 0
M  V30 1163 O 111.629 2.44253 -3.63692 0
M  V30 1164 C 113.13 3.73837 -2.38245 0
M  V30 1165 H 110.35 0.468264 -0.480593 0
M  V30 1166 H 112.894 0.897607 -1.83748 0
M  V30 1167 H 111.049 3.38027 -1.89252 0
M  V30 1168 H 111.463 3.26695 -4.1033 0
M  V30 1169 H 112.937 4.60699 -3.04073 0
M  V30 1170 H 113.414 4.16153 -1.40403 0
M  V30 1171 H 114.02 3.21589 -2.78317 0
M  V30 1172 N 112.336 1.25143 0.95797 0
M  V30 1173 C 113.613 1.00472 1.67823 0
M  V30 1174 C 113.993 -0.470056 2.058 0
M  V30 1175 O 113.341 -1.44663 1.76875 0
M  V30 1176 C 113.551 1.9372 2.90299 0
M  V30 1177 C 114.899 2.21371 3.62326 0
M  V30 1178 O 115.923 1.91451 3.00375 0
M  V30 1179 O 114.782 2.72231 4.7387 0
M  V30 1180 H 111.876 0.380752 0.734137 0
M  V30 1181 H 114.422 1.36283 1.01119 0
M  V30 1182 H 113.194 2.93316 2.59001 0
M  V30 1183 H 112.817 1.58286 3.64735 0
M  V30 1184 N 113.814 -1.1601 1.06675 0
M  V30 1185 C 115.063 -1.85973 0.780818 0
M  V30 1186 C 115.376 -1.82819 -0.695444 0
M  V30 1187 O 116.582 -2.484 -1.09589 0
M  V30 1188 C 115.038 -3.33757 1.34665 0
M  V30 1189 C 114.646 -3.45374 2.85343 0
M  V30 1190 C 116.39 -4.0895 1.13843 0
M  V30 1191 C 114.297 -4.87266 3.35151 0
M  V30 1192 H 113.227 -0.696661 0.288407 0
M  V30 1193 H 115.878 -1.30903 1.28595 0
M  V30 1194 H 114.26 -3.88456 0.769274 0
M  V30 1195 H 115.434 -3.00816 3.49065 0
M  V30 1196 H 113.749 -2.83619 3.04876 0
M  V30 1197 H 116.346 -5.13654 1.4854 0
M  V30 1198 H 116.689 -4.16229 0.0770282 0
M  V30 1199 H 117.222 -3.605 1.68179 0
M  V30 1200 H 113.961 -4.85168 4.40786 0
M  V30 1201 H 113.481 -5.32433 2.76179 0
M  V30 1202 H 115.16 -5.56097 3.30704 0
M  V30 1203 N 115.292 -0.849877 -1.32721 0
M  V30 1204 C 116.522 -0.46408 -2.0132 0
M  V30 1205 C 116.93 0.94246 -1.64056 0
M  V30 1206 O 116.273 1.6257 -0.855379 0
M  V30 1207 C 116.335 -0.517887 -3.5575 0
M  V30 1208 C 115.999 -1.88248 -4.16427 0
M  V30 1209 C 116.996 -2.84726 -4.35002 0
M  V30 1210 C 114.681 -2.17832 -4.52609 0
M  V30 1211 C 116.675 -4.08945 -4.8892 0
M  V30 1212 C 114.362 -3.42304 -5.06232 0
M  V30 1213 C 115.36 -4.37677 -5.24335 0
M  V30 1214 O 115.048 -5.59946 -5.76815 0
M  V30 1215 H 114.78 -0.181327 -0.651227 0
M  V30 1216 H 117.334 -1.14713 -1.70382 0
M  V30 1217 H 115.564 0.221997 -3.86062 0
M  V30 1218 H 117.253 -0.148366 -4.05629 0
M  V30 1219 H 118.019 -2.63174 -4.07388 0
M  V30 1220 H 113.898 -1.44385 -4.37806 0
M  V30 1221 H 117.442 -4.83396 -5.02966 0
M  V30 1222 H 113.339 -3.63709 -5.33278 0
M  V30 1223 H 114.107 -5.61838 -5.95214 0
M  V30 1224 N 116.77 1.45427 -0.607355 0
M  V30 1225 C 118.016 2.0254 -0.102607 0
M  V30 1226 C 118.349 1.47478 1.26348 0
M  V30 1227 O 117.624 0.64939 1.83339 0
M  V30 1228 C 117.907 3.60044 -0.0634347 0
M  V30 1229 C 117.76 4.2544 -1.46017 0
M  V30 1230 C 119.079 4.35646 0.624514 0
M  V30 1231 H 116.198 0.73598 -0.0387607 0
M  V30 1232 H 118.84 1.73284 -0.779282 0
M  V30 1233 H 116.99 3.85101 0.512808 0
M  V30 1234 H 118.662 4.11569 -2.08347 0
M  V30 1235 H 116.905 3.83849 -2.02094 0
M  V30 1236 H 117.576 5.34342 -1.385 0
M  V30 1237 H 120.052 4.15882 0.134723 0
M  V30 1238 H 118.928 5.45376 0.621028 0
M  V30 1239 H 119.189 4.08501 1.69055 0
M  V30 1240 N 118.248 0.346503 1.53744 0
M  V30 1241 C 119.476 -0.25041 2.05379 0
M  V30 1242 C 119.891 -1.43979 1.22129 0
M  V30 1243 O 119.248 -1.80677 0.257321 0
M  V30 1244 C 119.299 -0.662575 3.55376 0
M  V30 1245 O 119.02 0.479515 4.35468 0
M  V30 1246 C 120.521 -1.31989 4.23195 0
M  V30 1247 H 117.741 -0.0478198 0.669294 0
M  V30 1248 H 120.285 0.499346 1.9831 0
M  V30 1249 H 118.44 -1.36227 3.62658 0
M  V30 1250 H 118.854 0.15037 5.24284 0
M  V30 1251 H 120.328 -1.55902 5.29527 0
M  V30 1252 H 120.805 -2.27436 3.75725 0
M  V30 1253 H 121.411 -0.662154 4.20114 0
M  V30 1254 N 119.726 -1.57421 0.075193 0
M  V30 1255 C 120.951 -1.98364 -0.605515 0
M  V30 1256 C 121.376 -0.953383 -1.62149 0
M  V30 1257 O 120.734 0.0806053 -1.81121 0
M  V30 1258 C 120.782 -3.38332 -1.24756 0
M  V30 1259 O 119.886 -3.37959 -2.36342 0
M  V30 1260 H 119.227 -0.645553 -0.155428 0
M  V30 1261 H 121.757 -2.04044 0.150714 0
M  V30 1262 H 121.767 -3.75591 -1.5936 0
M  V30 1263 H 120.442 -4.12846 -0.503129 0
M  V30 1264 H 119.019 -3.12474 -2.03506 0
M  V30 1265 N 121.204 0.198386 -1.56346 0
M  V30 1266 C 122.451 0.919286 -1.80431 0
M  V30 1267 C 122.779 1.83393 -0.647866 0
M  V30 1268 O 122.034 1.92236 0.366556 0
M  V30 1269 C 122.333 1.77031 -3.10475 0
M  V30 1270 C 121.999 1.00693 -4.39513 0
M  V30 1271 C 120.661 0.796145 -4.74568 0
M  V30 1272 C 123.013 0.469559 -5.19081 0
M  V30 1273 C 120.341 0.0364588 -5.86689 0
M  V30 1274 C 122.693 -0.2769 -6.31994 0
M  V30 1275 C 121.357 -0.49873 -6.65634 0
M  V30 1276 H 120.627 0.336391 -0.660244 0
M  V30 1277 H 123.274 0.185872 -1.90596 0
M  V30 1278 H 121.579 2.5723 -2.95533 0
M  V30 1279 H 123.276 2.33065 -3.26315 0
M  V30 1280 H 119.866 1.18122 -4.12001 0
M  V30 1281 H 124.05 0.619816 -4.92414 0
M  V30 1282 H 119.306 -0.145412 -6.11227 0
M  V30 1283 H 123.48 -0.700684 -6.92866 0
M  V30 1284 H 121.107 -1.0893 -7.52355 0
M  V30 1285 N 122.682 1.50554 0.465978 0
M  V30 1286 C 123.93 1.61479 1.21528 0
M  V30 1287 C 124.251 0.319596 1.92363 0
M  V30 1288 O 123.521 -0.663194 1.84333 0
M  V30 1289 H 122.101 0.595055 0.451573 0
M  V30 1290 H 124.763 1.87355 0.53704 0
M  V30 1291 H 123.859 2.42846 1.96042 0
M  V30 1292 N 124.16 -0.719506 1.40217 0
M  V30 1293 C 125.571 -1.29848 1.34151 0
M  V30 1294 C 125.922 -1.96196 0.0131349 0
M  V30 1295 O 125.047 -1.973 -0.88892 0
M  V30 1296 C 125.642 -2.36118 2.42968 0
M  V30 1297 C 124.201 -2.8965 2.40374 0
M  V30 1298 C 123.348 -1.63393 2.24049 0
M  V30 1299 H 126.299 -0.51591 1.5008 0
M  V30 1300 H 126.32 -3.16871 2.10649 0
M  V30 1301 H 125.832 -1.878 3.39636 0
M  V30 1302 H 123.933 -3.42208 1.47392 0
M  V30 1303 H 124.046 -3.4171 3.35814 0
M  V30 1304 H 122.41 -1.88312 1.71495 0
M  V30 1305 H 123.193 -1.17104 3.2271 0
M  V30 1306 N 125.638 -1.25649 -0.95132 0
M  V30 1307 C 126.884 -1.10757 -1.69884 0
M  V30 1308 C 127.217 0.350061 -1.91019 0
M  V30 1309 O 126.492 1.25783 -1.48354 0
M  V30 1310 C 126.775 -1.86606 -3.07978 0
M  V30 1311 C 126.628 -3.40217 -2.94232 0
M  V30 1312 C 127.947 -1.65182 -4.07925 0
M  V30 1313 H 125.066 -0.40374 -0.616574 0
M  V30 1314 H 127.708 -1.54521 -1.10558 0
M  V30 1315 H 125.858 -1.49409 -3.58621 0
M  V30 1316 H 127.53 -3.87108 -2.50889 0
M  V30 1317 H 125.773 -3.67759 -2.30078 0
M  V30 1318 H 126.444 -3.88505 -3.92133 0
M  V30 1319 H 128.92 -1.9757 -3.66204 0
M  V30 1320 H 127.796 -2.20683 -5.02583 0
M  V30 1321 H 128.057 -0.593933 -4.38092 0
M  V30 1322 N 127.117 1.15442 -1.07289 0
M  V30 1323 C 128.342 1.90638 -0.816828 0
M  V30 1324 C 128.767 1.77445 0.624083 0
M  V30 1325 O 128.125 1.10671 1.43602 0
M  V30 1326 C 128.173 3.39008 -1.22906 0
M  V30 1327 O 127.277 4.10701 -0.373975 0
M  V30 1328 H 126.618 0.593555 -0.297638 0
M  V30 1329 H 129.148 1.46198 -1.43134 0
M  V30 1330 H 129.158 3.89801 -1.20497 0
M  V30 1331 H 127.833 3.47929 -2.27856 0
M  V30 1332 H 126.41 3.70046 -0.460499 0
M  V30 1333 N 128.595 0.856903 1.32268 0
M  V30 1334 C 129.872 0.382583 1.91822 0
M  V30 1335 C 130.252 -1.13407 1.78051 0
M  V30 1336 O 129.6 -1.95673 1.18001 0
M  V30 1337 C 129.81 0.849446 3.38505 0
M  V30 1338 C 131.158 0.867936 4.15634 0
M  V30 1339 O 132.182 0.794232 3.47232 0
M  V30 1340 O 131.041 0.972286 5.37781 0
M  V30 1341 H 128.135 0.112014 0.819379 0
M  V30 1342 H 130.681 0.943952 1.41024 0
M  V30 1343 H 129.453 1.89267 3.42482 0
M  V30 1344 H 129.076 0.265652 3.96712 0
M  V30 1345 N 130.073 -1.45103 0.615059 0
M  V30 1346 C 131.319 -2.02483 0.113347 0
M  V30 1347 C 131.652 -1.48146 -1.25564 0
M  V30 1348 O 130.927 -0.659104 -1.82992 0
M  V30 1349 C 131.21 -3.60005 0.0825278 0
M  V30 1350 C 131.063 -4.2466 1.48271 0
M  V30 1351 C 132.382 -4.35972 -0.601401 0
M  V30 1352 H 129.501 -0.735764 0.0426632 0
M  V30 1353 H 132.143 -1.72868 0.788461 0
M  V30 1354 H 130.293 -3.85367 -0.492378 0
M  V30 1355 H 131.965 -4.10458 2.10527 0
M  V30 1356 H 130.208 -3.82772 2.04127 0
M  V30 1357 H 130.879 -5.336 1.41332 0
M  V30 1358 H 133.355 -4.15947 -0.112666 0
M  V30 1359 H 132.231 -5.45697 -0.592097 0
M  V30 1360 H 132.492 -4.09391 -1.66887 0
M  V30 1361 N 131.551 -0.354651 -1.53558 0
M  V30 1362 C 132.461 0.50515 -2.29097 0
M  V30 1363 C 133.477 1.10223 -1.34636 0
M  V30 1364 O 134.653 1.11553 -1.67684 0
M  V30 1365 C 131.718 1.63479 -3.05738 0
M  V30 1366 C 130.779 1.06636 -4.15845 0
M  V30 1367 C 130.012 2.14217 -4.88822 0
M  V30 1368 O 130.235 3.35137 -4.61562 0
M  V30 1369 O 129.169 1.77887 -5.75013 0
M  V30 1370 H 132.995 -0.109237 -3.03503 0
M  V30 1371 H 130.58 -0.119357 -1.48922 0
M  V30 1372 H 132.462 2.2918 -3.5363 0
M  V30 1373 H 131.137 2.23478 -2.34178 0
M  V30 1374 H 130.044 0.373565 -3.7223 0
M  V30 1375 H 131.377 0.511081 -4.89539 0
M  V30 1376 N 133.029 1.57378 -0.0835403 0
M  V30 1377 C 133.962 2.09016 0.915833 0
M  V30 1378 C 134.94 0.997993 1.2837 0
M  V30 1379 O 136.124 1.27219 1.39096 0
M  V30 1380 C 133.251 2.55757 2.22049 0
M  V30 1381 C 132.297 3.76522 2.00333 0
M  V30 1382 S 133.13 5.20661 1.25191 0
M  V30 1383 C 134.286 5.70743 2.56912 0
M  V30 1384 H 134.519 2.93457 0.476492 0
M  V30 1385 H 132.052 1.53856 0.129493 0
M  V30 1386 H 134.01 2.83346 2.97027 0
M  V30 1387 H 132.671 1.71564 2.63106 0
M  V30 1388 H 131.864 4.07256 2.96916 0
M  V30 1389 H 131.466 3.49367 1.33488 0
M  V30 1390 H 133.758 5.78304 3.52946 0
M  V30 1391 H 134.701 6.6944 2.30772 0
M  V30 1392 H 135.109 4.98616 2.64655 0
M  V30 1393 N 134.507 -0.190092 1.56449 0
M  V30 1394 C 135.417 -1.25591 1.98152 0
M  V30 1395 C 136.433 -1.49519 0.889944 0
M  V30 1396 O 137.609 -1.62036 1.19609 0
M  V30 1397 C 134.674 -2.57916 2.3169 0
M  V30 1398 C 133.735 -2.42015 3.5458 0
M  V30 1399 C 132.968 -3.6803 3.8651 0
M  V30 1400 O 133.191 -4.72413 3.1966 0
M  V30 1401 O 132.125 -3.6326 4.79923 0
M  V30 1402 H 135.951 -0.931988 2.89046 0
M  V30 1403 H 133.536 -0.395488 1.4407 0
M  V30 1404 H 135.418 -3.36008 2.54316 0
M  V30 1405 H 134.093 -2.89925 1.43963 0
M  V30 1406 H 133 -1.62017 3.37196 0
M  V30 1407 H 134.333 -2.14937 4.4279 0
M  V30 1408 N 135.985 -1.50799 -0.457987 0
M  V30 1409 C 137.215 -1.65977 -1.23025 0
M  V30 1410 C 137.623 -0.347918 -1.85974 0
M  V30 1411 O 136.966 0.68148 -1.70592 0
M  V30 1412 C 137.028 -2.70309 -2.3701 0
M  V30 1413 C 136.692 -4.135 -1.94594 0
M  V30 1414 C 137.689 -4.98949 -1.46101 0
M  V30 1415 C 135.374 -4.5949 -2.02915 0
M  V30 1416 C 137.368 -6.28442 -1.06489 0
M  V30 1417 C 135.055 -5.88984 -1.62914 0
M  V30 1418 C 136.053 -6.73286 -1.1478 0
M  V30 1419 O 135.741 -8.00362 -0.75339 0
M  V30 1420 H 135.473 -0.56064 -0.377702 0
M  V30 1421 H 138.027 -1.97857 -0.551537 0
M  V30 1422 H 136.257 -2.337 -3.08093 0
M  V30 1423 H 137.946 -2.74574 -2.98938 0
M  V30 1424 H 138.712 -4.6463 -1.39084 0
M  V30 1425 H 134.591 -3.94009 -2.39328 0
M  V30 1426 H 138.135 -6.94194 -0.688488 0
M  V30 1427 H 134.032 -6.22822 -1.69595 0
M  V30 1428 H 134.8 -8.13744 -0.88108 0
M  V30 1429 N 137.463 0.71206 -1.40597 0
M  V30 1430 C 138.691 1.50111 -1.42388 0
M  V30 1431 C 139.106 1.88784 -0.0245395 0
M  V30 1432 O 138.463 1.55681 0.952351 0
M  V30 1433 C 138.514 2.7742 -2.31776 0
M  V30 1434 O 138.235 2.40382 -3.66262 0
M  V30 1435 C 139.736 3.7129 -2.42196 0
M  V30 1436 H 136.956 0.46314 -0.485533 0
M  V30 1437 H 139.5 0.878068 -1.8469 0
M  V30 1438 H 137.655 3.36001 -1.92827 0
M  V30 1439 H 138.069 3.22324 -4.13772 0
M  V30 1440 H 139.543 4.57448 -3.08943 0
M  V30 1441 H 140.02 4.14641 -1.44809 0
M  V30 1442 H 140.626 3.18619 -2.81712 0
M  V30 1443 N 138.941 1.26152 0.944643 0
M  V30 1444 C 139.874 1.01729 2.04271 0
M  V30 1445 C 140.852 -0.0568101 1.62501 0
M  V30 1446 O 142.036 0.0848987 1.88309 0
M  V30 1447 C 139.163 0.539792 3.34371 0
M  V30 1448 C 138.209 1.60593 3.9511 0
M  V30 1449 S 139.042 3.19392 4.29825 0
M  V30 1450 C 140.198 2.73402 5.63029 0
M  V30 1451 H 140.431 1.94703 2.24673 0
M  V30 1452 H 137.964 1.09793 1.08558 0
M  V30 1453 H 139.922 0.270956 4.09605 0
M  V30 1454 H 138.583 -0.369609 3.11918 0
M  V30 1455 H 137.776 1.22275 4.88943 0
M  V30 1456 H 137.378 1.82596 3.26397 0
M  V30 1457 H 139.67 2.1765 6.41588 0
M  V30 1458 H 140.613 3.65913 6.06229 0
M  V30 1459 H 141.021 2.13077 5.22741 0
M  V30 1460 N 140.419 -1.14872 1.07899 0
M  V30 1461 C 141.696 -1.81928 0.71845 0
M  V30 1462 C 142.076 -1.95417 -0.798455 0
M  V30 1463 O 141.424 -1.50997 -1.715 0
M  V30 1464 C 141.634 -3.17937 1.43935 0
M  V30 1465 C 142.982 -3.93501 1.59506 0
M  V30 1466 O 144.006 -3.27509 1.40058 0
M  V30 1467 O 142.865 -5.1183 1.91551 0
M  V30 1468 H 139.959 -0.78628 0.256305 0
M  V30 1469 H 142.505 -1.21934 1.18026 0
M  V30 1470 H 141.277 -3.0325 2.47295 0
M  V30 1471 H 140.9 -3.85619 0.968687 0
M  V30 1472 N 141.898 -0.863906 -1.31812 0
M  V30 1473 C 143.144 -0.472535 -1.97218 0
M  V30 1474 C 143.477 0.971394 -1.68159 0
M  V30 1475 O 142.752 1.68309 -0.974798 0
M  V30 1476 C 143.035 -0.723054 -3.52766 0
M  V30 1477 C 142.888 -2.21608 -3.91421 0
M  V30 1478 C 144.207 -0.185522 -4.39709 0
M  V30 1479 H 141.326 -0.173158 -0.71637 0
M  V30 1480 H 143.968 -1.08403 -1.56041 0
M  V30 1481 H 142.118 -0.202577 -3.87971 0
M  V30 1482 H 143.79 -2.80334 -3.66347 0
M  V30 1483 H 142.033 -2.691 -3.40246 0
M  V30 1484 H 142.704 -2.34203 -4.99853 0
M  V30 1485 H 145.18 -0.630726 -4.11292 0
M  V30 1486 H 144.056 -0.390306 -5.47511 0
M  V30 1487 H 144.317 0.912229 -4.32586 0
M  V30 1488 N 143.376 1.44774 -0.622745 0
M  V30 1489 C 144.623 2.02121 -0.1239 0
M  V30 1490 C 144.951 1.48915 1.25118 0
M  V30 1491 O 144.206 0.660045 1.84233 0
M  V30 1492 C 144.505 3.57364 -0.0508323 0
M  V30 1493 C 144.171 4.29787 -1.36358 0
M  V30 1494 C 142.833 4.4929 -1.72314 0
M  V30 1495 C 145.185 4.71062 -2.23048 0
M  V30 1496 C 142.513 5.07325 -2.94682 0
M  V30 1497 C 144.865 5.30452 -3.44679 0
M  V30 1498 C 143.529 5.48175 -3.80868 0
M  V30 1499 H 142.799 0.739612 -0.0453381 0
M  V30 1500 H 145.446 1.73648 -0.807389 0
M  V30 1501 H 143.751 3.85202 0.715991 0
M  V30 1502 H 145.448 3.99456 0.351533 0
M  V30 1503 H 142.038 4.14932 -1.07375 0
M  V30 1504 H 146.222 4.55715 -1.96565 0
M  V30 1505 H 141.478 5.19235 -3.22809 0
M  V30 1506 H 145.652 5.61385 -4.12092 0
M  V30 1507 H 143.279 5.92912 -4.75773 0
M  V30 1508 N 144.854 0.36279 1.53368 0
M  V30 1509 C 146.101 -0.227776 2.01215 0
M  V30 1510 C 146.429 -1.49003 1.25014 0
M  V30 1511 O 145.684 -1.92876 0.331236 0
M  V30 1512 C 145.983 -0.568417 3.52851 0
M  V30 1513 C 145.649 0.59918 4.46901 0
M  V30 1514 C 144.311 0.919559 4.72332 0
M  V30 1515 C 146.663 1.38156 5.02556 0
M  V30 1516 C 143.991 2.02434 5.5067 0
M  V30 1517 C 146.343 2.47674 5.821 0
M  V30 1518 C 145.007 2.8025 6.05819 0
M  V30 1519 H 144.277 -0.083349 0.736297 0
M  V30 1520 H 146.924 0.494677 1.85001 0
M  V30 1521 H 145.229 -1.37185 3.66998 0
M  V30 1522 H 146.926 -1.03756 3.87344 0
M  V30 1523 H 143.516 0.339437 4.27254 0
M  V30 1524 H 147.7 1.14729 4.82857 0
M  V30 1525 H 142.956 2.28075 5.67267 0
M  V30 1526 H 147.13 3.08716 6.24234 0
M  V30 1527 H 144.757 3.65979 6.66306 0
M  V30 1528 N 146.332 -1.57332 0.0918853 0
M  V30 1529 C 147.748 -1.57389 -0.264766 0
M  V30 1530 C 147.948 -1.10281 -1.68643 0
M  V30 1531 O 147.004 -0.777801 -2.40222 0
M  V30 1532 C 148.317 -3.00648 -0.0561195 0
M  V30 1533 C 149.865 -3.12754 -0.124116 0
M  V30 1534 C 150.34 -4.57965 0.0564972 0
M  V30 1535 N 151.831 -4.632 0.00155611 0
M  V30 1536 C 152.566 -5.73281 0.116598 0
M  V30 1537 N 152.062 -6.92208 0.286294 0
M  V30 1538 N 153.855 -5.6207 0.0580973 0
M  V30 1539 H 146.006 -1.86262 1.02079 0
M  V30 1540 H 148.269 -0.859579 0.399786 0
M  V30 1541 H 147.975 -3.393 0.925669 0
M  V30 1542 H 147.849 -3.68623 -0.799823 0
M  V30 1543 H 150.236 -2.73976 -1.09641 0
M  V30 1544 H 150.317 -2.47377 0.651024 0
M  V30 1545 H 149.961 -4.97436 1.02564 0
M  V30 1546 H 149.891 -5.21399 -0.738297 0
M  V30 1547 H 152.382 -3.77686 -0.127192 0
M  V30 1548 H 152.695 -7.71934 0.365676 0
M  V30 1549 H 151.04 -6.94254 0.32192 0
M  V30 1550 H 154.231 -4.68043 -0.0733204 0
M  V30 1551 H 154.404 -6.47824 0.151203 0
M  V30 1552 N 147.81 0.181792 -1.56548 0
M  V30 1553 C 148.742 1.24956 -1.92142 0
M  V30 1554 C 149.755 1.41022 -0.813422 0
M  V30 1555 O 150.944 1.41212 -1.09186 0
M  V30 1556 C 148.044 2.61981 -2.14987 0
M  V30 1557 C 147.217 2.6735 -3.46183 0
M  V30 1558 C 146.276 3.85664 -3.5798 0
M  V30 1559 O 145.302 3.72148 -4.30691 0
M  V30 1560 N 146.504 5.01683 -2.92053 0
M  V30 1561 H 149.269 0.947329 -2.84334 0
M  V30 1562 H 146.83 0.371629 -1.57577 0
M  V30 1563 H 148.822 3.3958 -2.20154 0
M  V30 1564 H 147.392 2.84637 -1.2923 0
M  V30 1565 H 146.612 1.75925 -3.52766 0
M  V30 1566 H 147.9 2.67939 -4.32534 0
M  V30 1567 H 147.298 5.15564 -2.32832 0
M  V30 1568 H 145.855 5.77181 -3.0283 0
M  V30 1569 N 149.288 1.51039 0.449983 0
M  V30 1570 C 150.516 1.66869 1.2232 0
M  V30 1571 C 150.931 0.360727 1.85322 0
M  V30 1572 O 150.288 -0.659531 1.70166 0
M  V30 1573 C 150.339 2.77524 2.31652 0
M  V30 1574 O 150.06 4.03252 1.7123 0
M  V30 1575 C 151.561 3.04512 3.2216 0
M  V30 1576 H 148.781 0.560326 0.369155 0
M  V30 1577 H 151.325 1.97385 0.534719 0
M  V30 1578 H 149.48 2.49642 2.96239 0
M  V30 1579 H 149.894 4.64609 2.43389 0
M  V30 1580 H 151.368 3.85551 3.95038 0
M  V30 1581 H 151.845 2.16415 3.8218 0
M  V30 1582 H 152.451 3.34005 2.63288 0
M  V30 1583 N 150.766 -0.704594 1.40972 0
M  V30 1584 C 152.012 -1.46546 1.41053 0
M  V30 1585 C 152.367 -1.92393 0.0159714 0
M  V30 1586 O 151.66 -1.66017 -0.956506 0
M  V30 1587 C 151.854 -2.698 2.34399 0
M  V30 1588 C 151.683 -2.36008 3.82793 0
M  V30 1589 C 150.453 -2.26812 4.51536 0
M  V30 1590 C 152.651 -1.99565 4.74003 0
M  V30 1591 N 150.633 -1.8581 5.85105 0
M  V30 1592 C 152.004 -1.69251 5.96451 0
M  V30 1593 C 154.059 -1.86296 4.61734 0
M  V30 1594 C 152.762 -1.27003 7.07999 0
M  V30 1595 C 154.788 -1.45452 5.73234 0
M  V30 1596 C 154.15 -1.16043 6.94776 0
M  V30 1597 H 150.249 -0.533896 0.571383 0
M  V30 1598 H 152.833 -0.816061 1.76773 0
M  V30 1599 H 151.004 -3.32473 2.00789 0
M  V30 1600 H 152.736 -3.36214 2.25261 0
M  V30 1601 H 149.491 -2.44913 4.05357 0
M  V30 1602 H 149.915 -1.67817 6.55871 0
M  V30 1603 H 154.557 -2.0769 3.68273 0
M  V30 1604 H 152.275 -1.04353 8.01334 0
M  V30 1605 H 155.861 -1.35748 5.65742 0
M  V30 1606 H 154.741 -0.84915 7.79589 0
M  V30 1607 N 152.244 -1.26651 -0.937939 0
M  V30 1608 C 153.493 -1.11775 -1.67897 0
M  V30 1609 C 153.806 0.33794 -1.92659 0
M  V30 1610 O 155.012 0.607434 -2.64618 0
M  V30 1611 C 153.468 -1.9523 -3.02346 0
M  V30 1612 C 153.076 -3.45393 -2.8532 0
M  V30 1613 C 154.82 -1.88972 -3.80118 0
M  V30 1614 C 152.727 -4.21083 -4.15263 0
M  V30 1615 H 151.657 -0.414696 -0.629717 0
M  V30 1616 H 154.308 -1.50988 -1.04283 0
M  V30 1617 H 152.69 -1.48853 -3.66959 0
M  V30 1618 H 153.864 -3.99561 -2.29537 0
M  V30 1619 H 152.179 -3.52921 -2.20988 0
M  V30 1620 H 154.776 -2.42805 -4.76392 0
M  V30 1621 H 155.119 -0.86113 -4.07296 0
M  V30 1622 H 155.652 -2.33189 -3.22285 0
M  V30 1623 H 152.391 -5.24425 -3.93267 0
M  V30 1624 H 151.911 -3.71695 -4.70747 0
M  V30 1625 H 153.59 -4.29706 -4.83696 0
M  V30 1626 N 153.722 1.14298 -1.08507 0
M  V30 1627 C 154.999 1.81544 -0.728088 0
M  V30 1628 C 155.379 1.95838 0.78808 0
M  V30 1629 O 154.727 1.51904 1.70697 0
M  V30 1630 C 154.937 3.17169 -1.45619 0
M  V30 1631 C 156.285 3.9265 -1.61591 0
M  V30 1632 O 157.309 3.26762 -1.41793 0
M  V30 1633 O 156.168 5.10807 -1.94263 0
M  V30 1634 H 153.262 0.78491 -0.260471 0
M  V30 1635 H 155.808 1.21307 -1.18671 0
M  V30 1636 H 154.58 3.01934 -2.489 0
M  V30 1637 H 154.203 3.851 -0.989124 0
M  V30 1638 N 155.201 0.870884 1.31352 0
M  V30 1639 C 156.148 0.325425 2.28494 0
M  V30 1640 C 157.118 -0.576615 1.5577 0
M  V30 1641 O 158.303 -0.508059 1.83911 0
M  V30 1642 C 155.443 -0.466283 3.41935 0
M  V30 1643 C 154.556 0.463378 4.29508 0
M  V30 1644 C 153.691 -0.342544 5.30094 0
M  V30 1645 C 152.73 0.583486 6.09313 0
M  V30 1646 N 151.867 -0.186244 7.01853 0
M  V30 1647 H 156.707 1.15901 2.74538 0
M  V30 1648 H 154.244 0.58294 1.35056 0
M  V30 1649 H 156.202 -0.941085 4.06447 0
M  V30 1650 H 154.832 -1.26456 2.97 0
M  V30 1651 H 153.884 1.05663 3.65431 0
M  V30 1652 H 155.196 1.1734 4.84802 0
M  V30 1653 H 154.35 -0.879816 6.00287 0
M  V30 1654 H 153.089 -1.08585 4.75458 0
M  V30 1655 H 152.094 1.13251 5.3801 0
M  V30 1656 H 153.319 1.32566 6.66035 0
M  V30 1657 H 151.265 -0.912348 6.49625 0
M  V30 1658 H 151.182 0.464422 7.54572 0
M  V30 1659 H 152.45 -0.704716 7.76308 0
M  V30 1660 N 156.679 -1.44442 0.630414 0
M  V30 1661 C 158.095 -1.56832 0.295973 0
M  V30 1662 C 158.295 -1.61806 -1.20088 0
M  V30 1663 O 157.351 -1.5607 -1.9849 0
M  V30 1664 C 158.664 -2.84031 0.987264 0
M  V30 1665 C 160.212 -2.97742 0.96534 0
M  V30 1666 C 160.687 -4.27743 1.63708 0
M  V30 1667 N 162.178 -4.34555 1.60364 0
M  V30 1668 C 162.913 -5.33862 2.09234 0
M  V30 1669 N 162.409 -6.39578 2.66292 0
M  V30 1670 N 164.202 -5.25366 1.99867 0
M  V30 1671 H 156.353 -1.39457 1.60205 0
M  V30 1672 H 158.616 -0.668237 0.672431 0
M  V30 1673 H 158.322 -2.86338 2.04215 0
M  V30 1674 H 158.196 -3.73534 0.524588 0
M  V30 1675 H 160.583 -2.94989 -0.0810639 0
M  V30 1676 H 160.664 -2.09589 1.4665 0
M  V30 1677 H 160.308 -4.31255 2.68293 0
M  V30 1678 H 160.238 -5.14752 1.11076 0
M  V30 1679 H 162.729 -3.58772 1.18705 0
M  V30 1680 H 163.042 -7.11637 3.01317 0
M  V30 1681 H 161.387 -6.40265 2.70343 0
M  V30 1682 H 164.578 -4.41688 1.55013 0
M  V30 1683 H 164.751 -6.02606 2.38265 0
M  V30 1684 N 158.157 -0.370918 -1.53173 0
M  V30 1685 C 159.087 0.464847 -2.28826 0
M  V30 1686 C 160.068 1.07936 -1.31468 0
M  V30 1687 O 161.253 1.0956 -1.60344 0
M  V30 1688 C 158.383 1.60196 -3.08147 0
M  V30 1689 C 157.337 1.11443 -4.13237 0
M  V30 1690 C 156.663 2.3422 -4.80672 0
M  V30 1691 C 157.963 0.195384 -5.21934 0
M  V30 1692 H 159.657 -0.166329 -2.98938 0
M  V30 1693 H 157.203 -0.0814359 -1.4377 0
M  V30 1694 H 159.156 2.19332 -3.59822 0
M  V30 1695 H 157.88 2.26045 -2.35735 0
M  V30 1696 H 156.539 0.545727 -3.62515 0
M  V30 1697 H 156.187 2.98537 -4.04827 0
M  V30 1698 H 155.887 2.02269 -5.51689 0
M  V30 1699 H 157.411 2.94032 -5.35143 0
M  V30 1700 H 158.825 0.694375 -5.69079 0
M  V30 1701 H 157.222 -0.0335027 -6.00091 0
M  V30 1702 H 158.292 -0.760961 -4.78892 0
M  V30 1703 N 159.635 1.57281 -0.100228 0
M  V30 1704 C 160.582 2.14305 0.856858 0
M  V30 1705 C 161.552 1.06296 1.27634 0
M  V30 1706 O 162.737 1.34109 1.35718 0
M  V30 1707 C 159.877 2.73184 2.10866 0
M  V30 1708 C 158.99 3.95442 1.73925 0
M  V30 1709 C 158.125 4.42468 2.93931 0
M  V30 1710 C 157.164 5.57303 2.5314 0
M  V30 1711 N 156.301 5.99158 3.65997 0
M  V30 1712 H 161.141 2.95772 0.363726 0
M  V30 1713 H 158.678 1.46139 0.167858 0
M  V30 1714 H 160.636 3.05442 2.84185 0
M  V30 1715 H 159.266 1.94437 2.57671 0
M  V30 1716 H 158.318 3.69464 0.905554 0
M  V30 1717 H 159.63 4.78769 1.39935 0
M  V30 1718 H 158.784 4.76537 3.75496 0
M  V30 1719 H 157.523 3.58052 3.31134 0
M  V30 1720 H 156.528 5.22857 1.70003 0
M  V30 1721 H 157.753 6.43471 2.17075 0
M  V30 1722 H 155.699 5.17687 4.02909 0
M  V30 1723 H 155.616 6.77295 3.35869 0
M  V30 1724 H 156.884 6.3786 4.48057 0
M  V30 1725 N 161.113 -0.173488 1.56642 0
M  V30 1726 C 162.343 -0.904781 1.85734 0
M  V30 1727 C 162.751 -1.76431 0.68328 0
M  V30 1728 O 162.094 -1.802 -0.356865 0
M  V30 1729 C 162.156 -1.83382 3.09211 0
M  V30 1730 C 161.82 -1.15411 4.42187 0
M  V30 1731 C 162.817 -0.520609 5.17287 0
M  V30 1732 C 160.502 -1.15151 4.88923 0
M  V30 1733 C 162.496 0.106412 6.37311 0
M  V30 1734 C 160.183 -0.520664 6.08878 0
M  V30 1735 C 161.181 0.107196 6.82916 0
M  V30 1736 O 160.869 0.728102 8.00596 0
M  V30 1737 H 160.601 -0.268408 0.62043 0
M  V30 1738 H 163.155 -0.179096 2.04618 0
M  V30 1739 H 161.385 -2.59976 2.86268 0
M  V30 1740 H 163.074 -2.43476 3.24768 0
M  V30 1741 H 163.84 -0.514606 4.82262 0
M  V30 1742 H 159.719 -1.62961 4.31236 0
M  V30 1743 H 163.263 0.597081 6.9504 0
M  V30 1744 H 159.16 -0.524242 6.43368 0
M  V30 1745 H 159.928 0.627138 8.16094 0
M  V30 1746 N 162.591 -1.51276 -0.441967 0
M  V30 1747 C 163.868 -1.54252 -1.20273 0
M  V30 1748 C 164.248 -0.30408 -2.08898 0
M  V30 1749 O 163.596 0.711084 -2.17154 0
M  V30 1750 C 163.806 -2.85406 -2.00859 0
M  V30 1751 C 165.154 -3.37181 -2.58059 0
M  V30 1752 O 166.178 -2.86925 -2.11074 0
M  V30 1753 O 165.037 -4.24858 -3.43741 0
M  V30 1754 H 162.131 -0.619969 -0.547328 0
M  V30 1755 H 164.677 -1.63586 -0.451413 0
M  V30 1756 H 163.449 -3.67003 -1.35736 0
M  V30 1757 H 163.072 -2.79213 -2.83065 0
M  V30 1758 N 164.069 0.697108 -1.41344 0
M  V30 1759 C 165.317 1.45426 -1.40341 0
M  V30 1760 C 165.638 1.94996 -0.0128787 0
M  V30 1761 O 164.908 1.71599 0.945027 0
M  V30 1762 H 163.488 0.539594 -0.516573 0
M  V30 1763 H 166.15 0.825201 -1.76569 0
M  V30 1764 H 165.246 2.31817 -2.08967 0
M  V30 1765 N 165.547 1.27147 0.931209 0
M  V30 1766 C 166.958 1.12044 1.49342 0
M  V30 1767 C 167.309 -0.295795 1.93957 0
M  V30 1768 O 166.434 -1.18835 1.80852 0
M  V30 1769 C 167.029 2.02781 2.71414 0
M  V30 1770 C 165.588 1.91794 3.2387 0
M  V30 1771 C 164.735 1.95543 1.96617 0
M  V30 1772 H 167.686 1.40091 0.745672 0
M  V30 1773 H 167.707 1.58156 3.46074 0
M  V30 1774 H 167.219 3.05848 2.38911 0
M  V30 1775 H 165.32 0.916992 3.6114 0
M  V30 1776 H 165.433 2.77852 3.90302 0
M  V30 1777 H 163.797 1.39722 2.12955 0
M  V30 1778 H 164.58 3.00259 1.66432 0
M  V30 1779 N 167.025 -1.13721 1.09112 0
M  V30 1780 C 168.274 -1.84275 0.82009 0
M  V30 1781 C 168.587 -1.84253 -0.656509 0
M  V30 1782 O 169.793 -2.50668 -1.04296 0
M  V30 1783 C 168.249 -3.30825 1.41714 0
M  V30 1784 C 167.857 -3.39244 2.92605 0
M  V30 1785 C 169.601 -4.06443 1.22492 0
M  V30 1786 C 167.508 -4.80047 3.45411 0
M  V30 1787 H 166.438 -0.690387 0.30312 0
M  V30 1788 H 169.089 -1.28146 1.31343 0
M  V30 1789 H 167.471 -3.86737 0.851498 0
M  V30 1790 H 168.645 -2.93344 3.55367 0
M  V30 1791 H 166.96 -2.77088 3.10823 0
M  V30 1792 H 169.557 -5.10387 1.59402 0
M  V30 1793 H 169.9 -4.15972 0.165299 0
M  V30 1794 H 170.433 -3.56852 1.75788 0
M  V30 1795 H 167.172 -4.75709 4.50978 0
M  V30 1796 H 166.692 -5.26455 2.87411 0
M  V30 1797 H 168.371 -5.48957 3.42425 0
M  V30 1798 N 168.503 -0.877838 -1.30888 0
M  V30 1799 C 169.413 -0.343096 -2.32078 0
M  V30 1800 C 170.429 0.551022 -1.65045 0
M  V30 1801 O 171.605 0.445854 -1.96403 0
M  V30 1802 C 168.67 0.439905 -3.43898 0
M  V30 1803 C 167.731 -0.483111 -4.26573 0
M  V30 1804 C 166.964 0.262616 -5.33053 0
M  V30 1805 O 167.187 1.48967 -5.50604 0
M  V30 1806 O 166.121 -0.383593 -6.00676 0
M  V30 1807 H 169.947 -1.18203 -2.79753 0
M  V30 1808 H 167.532 -0.64145 -1.34929 0
M  V30 1809 H 169.414 0.883504 -4.12034 0
M  V30 1810 H 168.089 1.25526 -2.98371 0
M  V30 1811 H 166.996 -0.975374 -3.61161 0
M  V30 1812 H 168.329 -1.26427 -4.75686 0
M  V30 1813 N 169.982 1.44106 -0.638065 0
M  V30 1814 C 171.231 2.01194 -0.142744 0
M  V30 1815 C 171.544 1.50835 1.24532 0
M  V30 1816 O 172.75 2.00096 1.83504 0
M  V30 1817 C 171.206 3.59319 -0.20442 0
M  V30 1818 C 170.814 4.18674 -1.59423 0
M  V30 1819 C 172.558 4.23854 0.234079 0
M  V30 1820 C 170.465 5.69045 -1.61065 0
M  V30 1821 H 169.395 0.752367 -0.0495998 0
M  V30 1822 H 172.046 1.65246 -0.797881 0
M  V30 1823 H 170.428 3.92598 0.517946 0
M  V30 1824 H 171.602 3.96921 -2.34074 0
M  V30 1825 H 169.917 3.66453 -1.97741 0
M  V30 1826 H 172.514 5.34155 0.241443 0
M  V30 1827 H 172.857 3.96688 1.2627 0
M  V30 1828 H 173.39 3.95403 -0.436025 0
M  V30 1829 H 170.129 6.00956 -2.61787 0
M  V30 1830 H 169.649 5.929 -0.90718 0
M  V30 1831 H 171.328 6.32809 -1.34766 0
M  V30 1832 N 171.46 0.379036 1.52974 0
M  V30 1833 C 172.39 -0.452706 2.29069 0
M  V30 1834 C 173.371 -1.07237 1.32039 0
M  V30 1835 O 174.556 -1.08708 1.60923 0
M  V30 1836 C 171.686 -1.5856 3.08992 0
M  V30 1837 C 170.64 -1.0925 4.13822 0
M  V30 1838 C 169.966 -2.31668 4.81907 0
M  V30 1839 C 171.266 -0.167702 5.22031 0
M  V30 1840 H 172.96 0.182181 2.98845 0
M  V30 1841 H 170.506 0.0890592 1.43724 0
M  V30 1842 H 172.459 -2.1742 3.6098 0
M  V30 1843 H 171.183 -2.24792 2.36931 0
M  V30 1844 H 169.842 -0.526494 3.628 0
M  V30 1845 H 169.49 -2.96386 4.06404 0
M  V30 1846 H 169.19 -1.9934 5.52754 0
M  V30 1847 H 170.714 -2.91189 5.36695 0
M  V30 1848 H 172.128 -0.664186 5.6944 0
M  V30 1849 H 170.525 0.0653265 6.00064 0
M  V30 1850 H 171.595 0.786347 4.78482 0
M  V30 1851 N 172.938 -1.57226 0.108567 0
M  V30 1852 C 174.354 -1.5766 -0.248058 0
M  V30 1853 C 174.554 -1.12063 -1.67464 0
M  V30 1854 O 173.61 -0.803236 -2.39383 0
M  V30 1855 C 174.923 -3.0069 -0.0242287 0
M  V30 1856 C 176.471 -3.12868 -0.0909372 0
M  V30 1857 C 176.946 -4.57879 0.105067 0
M  V30 1858 N 178.437 -4.63172 0.0506846 0
M  V30 1859 C 179.172 -5.73126 0.177396 0
M  V30 1860 N 178.668 -6.91866 0.359696 0
M  V30 1861 N 180.461 -5.61977 0.117709 0
M  V30 1862 H 172.612 -1.85169 1.04049 0
M  V30 1863 H 174.875 -0.85529 0.40888 0
M  V30 1864 H 174.581 -3.38299 0.961604 0
M  V30 1865 H 174.455 -3.6945 -0.76068 0
M  V30 1866 H 176.842 -2.75124 -1.06729 0
M  V30 1867 H 176.923 -2.46672 0.677225 0
M  V30 1868 H 176.567 -4.96321 1.07834 0
M  V30 1869 H 176.497 -5.22153 -0.682954 0
M  V30 1870 H 178.988 -3.778 -0.0871266 0
M  V30 1871 H 179.301 -7.71503 0.447529 0
M  V30 1872 H 177.646 -6.93874 0.395536 0
M  V30 1873 H 180.837 -4.68094 -0.0236741 0
M  V30 1874 H 181.01 -6.47627 0.219905 0
M  V30 1875 N 174.416 0.165178 -1.56732 0
M  V30 1876 C 175.346 1.20651 -1.99914 0
M  V30 1877 C 176.327 1.45827 -0.875705 0
M  V30 1878 O 177.512 1.57057 -1.14223 0
M  V30 1879 C 174.642 2.54401 -2.36427 0
M  V30 1880 C 173.596 2.43782 -3.51787 0
M  V30 1881 C 172.922 3.82078 -3.7406 0
M  V30 1882 C 174.222 1.93732 -4.85041 0
M  V30 1883 H 175.916 0.847534 -2.87154 0
M  V30 1884 H 173.462 0.40625 -1.38151 0
M  V30 1885 H 175.415 3.27458 -2.65234 0
M  V30 1886 H 174.139 2.92098 -1.46103 0
M  V30 1887 H 172.798 1.73178 -3.23117 0
M  V30 1888 H 172.446 4.17179 -2.81017 0
M  V30 1889 H 172.146 3.7584 -4.51684 0
M  V30 1890 H 173.67 4.56712 -4.05274 0
M  V30 1891 H 175.084 2.56569 -5.12684 0
M  V30 1892 H 173.481 1.98428 -5.66345 0
M  V30 1893 H 174.551 0.891962 -4.76626 0
M  V30 1894 N 175.894 1.51508 0.433938 0
M  V30 1895 C 176.842 1.73646 1.54757 0
M  V30 1896 C 177.836 0.602854 1.5831 0
M  V30 1897 O 179.042 0.784318 1.62014 0
M  V30 1898 H 175.417 0.548718 0.51421 0
M  V30 1899 H 177.388 2.66991 1.33261 0
M  V30 1900 C 176.137 1.88172 2.92381 0
M  V30 1901 H 175.46 2.74808 2.90381 0
M  V30 1902 H 176.9 2.07672 3.6966 0
M  V30 1903 C 175.359 0.64239 3.30719 0
M  V30 1904 O 175.889 -0.201362 4.01195 0
M  V30 1905 N 174.095 0.485489 2.86516 0
M  V30 1906 H 173.642 1.17318 2.29334 0
M  V30 1907 H 173.6 -0.342482 3.12529 0
M  V30 1908 N 177.372 -0.689602 1.41712 0
M  V30 1909 C 178.32 -1.82475 1.44242 0
M  V30 1910 C 179.314 -1.66354 0.319774 0
M  V30 1911 O 180.52 -1.73143 0.492089 0
M  V30 1912 H 176.895 -0.601416 0.451445 0
M  V30 1913 H 178.866 -1.77458 2.39899 0
M  V30 1914 C 177.615 -3.20535 1.3473 0
M  V30 1915 H 176.938 -3.33559 2.20405 0
M  V30 1916 H 178.378 -4.00023 1.40562 0
M  V30 1917 C 176.837 -3.36846 0.0603281 0
M  V30 1918 O 177.367 -3.91656 -0.892663 0
M  V30 1919 N 175.573 -2.90595 -0.0177039 0
M  V30 1920 H 175.12 -2.46178 0.758572 0
M  V30 1921 H 175.078 -3.01886 -0.878201 0
M  V30 1922 N 178.85 -1.27639 -0.924453 0
M  V30 1923 C 179.783 -1.04966 -2.02626 0
M  V30 1924 C 180.761 0.0309505 -1.62571 0
M  V30 1925 O 181.945 -0.114846 -1.8815 0
M  V30 1926 C 179.072 -0.59292 -3.3347 0
M  V30 1927 C 178.118 -1.66858 -3.92506 0
M  V30 1928 S 178.951 -3.2619 -4.24689 0
M  V30 1929 C 180.107 -2.82325 -5.58609 0
M  V30 1930 H 180.34 -1.98252 -2.21547 0
M  V30 1931 H 177.873 -1.11506 -1.06798 0
M  V30 1932 H 179.831 -0.336086 -4.09122 0
M  V30 1933 H 178.492 0.319939 -3.12466 0
M  V30 1934 H 177.685 -1.30038 -4.86935 0
M  V30 1935 H 177.287 -1.87766 -3.2345 0
M  V30 1936 H 179.579 -2.2783 -6.38044 0
M  V30 1937 H 180.522 -3.75511 -6.00331 0
M  V30 1938 H 180.93 -2.21367 -5.19285 0
M  V30 1939 N 180.328 1.1314 -1.09713 0
M  V30 1940 C 181.261 2.17735 -0.683137 0
M  V30 1941 C 182.239 1.59582 0.311841 0
M  V30 1942 O 183.423 1.87298 0.212514 0
M  V30 1943 C 180.55 3.38699 -0.00684324 0
M  V30 1944 C 179.596 4.1546 -0.964102 0
M  V30 1945 S 180.429 4.74733 -2.47767 0
M  V30 1946 C 181.585 5.9904 -1.81387 0
M  V30 1947 H 181.818 2.52515 -1.56918 0
M  V30 1948 H 179.351 1.24484 -0.913404 0
M  V30 1949 H 181.309 4.08765 0.377044 0
M  V30 1950 H 179.97 3.02214 0.85589 0
M  V30 1951 H 179.163 5.02093 -0.43803 0
M  V30 1952 H 178.765 3.51066 -1.28953 0
M  V30 1953 H 181.057 6.67846 -1.13967 0
M  V30 1954 H 182 6.56261 -2.65947 0
M  V30 1955 H 182.408 5.4976 -1.28155 0
M  V30 1956 N 181.806 0.884767 1.30421 0
M  V30 1957 C 183.052 0.503851 1.96441 0
M  V30 1958 C 183.385 -0.944518 1.69684 0
M  V30 1959 O 182.66 -1.66737 1.00145 0
M  V30 1960 C 182.943 0.779085 3.51571 0
M  V30 1961 C 182.796 2.27807 3.87846 0
M  V30 1962 C 184.115 0.255452 4.39358 0
M  V30 1963 H 181.234 0.184533 0.713524 0
M  V30 1964 H 183.876 1.10872 1.54297 0
M  V30 1965 H 182.026 0.264274 3.876 0
M  V30 1966 H 183.698 2.86127 3.61841 0
M  V30 1967 H 181.941 2.74479 3.35922 0
M  V30 1968 H 182.612 2.42125 4.96064 0
M  V30 1969 H 185.088 0.696079 4.10236 0
M  V30 1970 H 183.964 0.477361 5.4682 0
M  V30 1971 H 184.225 -0.843293 4.33983 0
M  V30 1972 N 183.284 -1.43765 0.645699 0
M  V30 1973 C 184.512 -2.06253 0.163556 0
M  V30 1974 C 184.927 -1.48352 -1.16778 0
M  V30 1975 O 184.284 -0.611932 -1.71935 0
M  V30 1976 C 184.335 -3.61453 0.0583186 0
M  V30 1977 O 184.056 -4.172 1.33702 0
M  V30 1978 C 185.557 -4.41002 -0.450795 0
M  V30 1979 H 182.777 -0.665413 0.0864077 0
M  V30 1980 H 185.321 -1.84396 0.884222 0
M  V30 1981 H 183.476 -3.82522 -0.612865 0
M  V30 1982 H 183.89 -5.10791 1.19131 0
M  V30 1983 H 185.364 -5.49966 -0.473403 0
M  V30 1984 H 185.841 -4.13488 -1.48068 0
M  V30 1985 H 186.447 -4.24886 0.187637 0
M  V30 1986 N 184.763 -0.387143 -1.52771 0
M  V30 1987 C 185.71 0.449048 -2.26389 0
M  V30 1988 C 186.68 1.05961 -1.27912 0
M  V30 1989 O 187.865 1.08804 -1.56737 0
M  V30 1990 C 185.005 1.57155 -3.0724 0
M  V30 1991 C 184.118 0.984066 -4.20643 0
M  V30 1992 C 183.253 2.07745 -4.88892 0
M  V30 1993 C 182.292 1.46574 -5.94292 0
M  V30 1994 N 181.429 2.49834 -6.56146 0
M  V30 1995 H 186.269 -0.185205 -2.97424 0
M  V30 1996 H 183.806 -0.103164 -1.46738 0
M  V30 1997 H 185.764 2.23309 -3.52405 0
M  V30 1998 H 184.394 2.17615 -2.38419 0
M  V30 1999 H 183.446 0.212193 -3.79808 0
M  V30 2000 H 184.758 0.497029 -4.96318 0
M  V30 2001 H 183.912 2.81673 -5.3735 0
M  V30 2002 H 182.651 2.59807 -4.12737 0
M  V30 2003 H 181.656 0.711696 -5.45174 0
M  V30 2004 H 182.881 0.953088 -6.72379 0
M  V30 2005 H 180.827 3.0107 -5.82832 0
M  V30 2006 H 180.744 2.05879 -7.27427 0
M  V30 2007 H 182.012 3.23399 -7.09249 0
M  V30 2008 N 186.241 1.57166 -0.116904 0
M  V30 2009 C 187.487 1.95412 0.542405 0
M  V30 2010 C 187.82 1.00019 1.66463 0
M  V30 2011 O 187.095 0.0370346 1.94465 0
M  V30 2012 C 187.378 3.43615 1.07708 0
M  V30 2013 C 187.231 4.49781 -0.0415868 0
M  V30 2014 C 188.55 3.93616 1.96861 0
M  V30 2015 H 185.669 0.710543 0.195696 0
M  V30 2016 H 188.311 1.89027 -0.192038 0
M  V30 2017 H 186.461 3.49187 1.70296 0
M  V30 2018 H 188.133 4.56308 -0.676793 0
M  V30 2019 H 186.376 4.28033 -0.705019 0
M  V30 2020 H 187.047 5.50733 0.373717 0
M  V30 2021 H 189.523 3.90335 1.44146 0
M  V30 2022 H 188.399 4.97838 2.3119 0
M  V30 2023 H 188.66 3.34188 2.89432 0
M  V30 2024 N 187.719 -0.156864 1.56817 0
M  V30 2025 C 188.965 -0.867645 1.83966 0
M  V30 2026 C 189.32 -1.79233 0.699511 0
M  V30 2027 O 188.613 -1.89186 -0.303176 0
M  V30 2028 C 188.807 -1.68737 3.1506 0
M  V30 2029 C 188.636 -0.843548 4.41718 0
M  V30 2030 C 187.406 -0.512994 5.02689 0
M  V30 2031 C 189.604 -0.178416 5.1399 0
M  V30 2032 N 187.586 0.345456 6.12927 0
M  V30 2033 C 188.957 0.540586 6.17639 0
M  V30 2034 C 191.012 -0.0980696 4.97803 0
M  V30 2035 C 189.715 1.33233 7.06853 0
M  V30 2036 C 191.741 0.680387 5.87473 0
M  V30 2037 C 191.103 1.3877 6.90596 0
M  V30 2038 H 187.202 -0.295642 0.723961 0
M  V30 2039 H 189.786 -0.13365 1.94241 0
M  V30 2040 H 187.957 -2.39268 3.0595 0
M  V30 2041 H 189.689 -2.34056 3.30151 0
M  V30 2042 H 186.444 -0.846476 4.65974 0
M  V30 2043 H 186.868 0.765415 6.72659 0
M  V30 2044 H 191.51 -0.630562 4.18071 0
M  V30 2045 H 189.228 1.87612 7.8602 0
M  V30 2046 H 192.814 0.744415 5.77018 0
M  V30 2047 H 191.694 1.9804 7.58782 0
M  V30 2048 N 189.197 -1.51736 -0.425897 0
M  V30 2049 C 190.425 -1.68794 -1.1965 0
M  V30 2050 C 190.84 -0.390164 -1.84725 0
M  V30 2051 O 190.197 0.632376 -1.71194 0
M  V30 2052 C 190.248 -2.81174 -2.27208 0
M  V30 2053 O 189.969 -4.05925 -1.64793 0
M  V30 2054 C 191.47 -3.09599 -3.17275 0
M  V30 2055 H 188.69 -0.566128 -0.360194 0
M  V30 2056 H 191.234 -1.98211 -0.503249 0
M  V30 2057 H 189.389 -2.54324 -2.9223 0
M  V30 2058 H 189.803 -4.68423 -2.35967 0
M  V30 2059 H 191.277 -3.91786 -3.88854 0
M  V30 2060 H 191.754 -2.22468 -3.78688 0
M  V30 2061 H 192.36 -3.38151 -2.57941 0
M  V30 2062 N 190.675 0.682077 -1.42076 0
M  V30 2063 C 192.086 1.26246 -1.37546 0
M  V30 2064 C 192.437 1.96092 -0.0651481 0
M  V30 2065 O 191.562 1.99587 0.836297 0
M  V30 2066 C 192.157 2.29594 -2.49143 0
M  V30 2067 C 190.716 2.83175 -2.47969 0
M  V30 2068 C 189.863 1.57395 -2.28303 0
M  V30 2069 H 192.814 0.475937 -1.51395 0
M  V30 2070 H 192.835 3.11175 -2.18976 0
M  V30 2071 H 192.347 1.78729 -3.44496 0
M  V30 2072 H 190.448 3.3818 -1.56413 0
M  V30 2073 H 190.561 3.32687 -3.44755 0
M  V30 2074 H 188.925 1.83699 -1.76428 0
M  V30 2075 H 189.708 1.08507 -3.25701 0
M  V30 2076 N 192.153 1.28127 0.917671 0
M  V30 2077 C 193.43 1.05761 1.64542 0
M  V30 2078 C 193.81 -0.404344 2.07191 0
M  V30 2079 O 193.158 -1.38963 1.81388 0
M  V30 2080 C 193.368 2.02857 2.83989 0
M  V30 2081 C 194.716 2.32786 3.551 0
M  V30 2082 O 195.74 2.0091 2.94132 0
M  V30 2083 O 194.599 2.87169 4.64969 0
M  V30 2084 H 191.693 0.403916 0.721652 0
M  V30 2085 H 194.239 1.39431 0.967322 0
M  V30 2086 H 193.011 3.01407 2.49538 0
M  V30 2087 H 192.634 1.69809 3.59514 0
M  V30 2088 N 193.631 -1.12557 1.10312 0
M  V30 2089 C 194.859 -1.87864 0.866873 0
M  V30 2090 C 195.274 -1.79588 -0.582557 0
M  V30 2091 O 194.631 -1.16887 -1.40156 0
M  V30 2092 C 194.682 -3.37125 1.30496 0
M  V30 2093 O 194.403 -3.45201 2.69755 0
M  V30 2094 C 195.904 -4.29373 1.10243 0
M  V30 2095 H 193.124 -0.594452 0.311236 0
M  V30 2096 H 195.668 -1.42429 1.46745 0
M  V30 2097 H 193.823 -3.80109 0.748081 0
M  V30 2098 H 194.237 -4.38056 2.88457 0
M  V30 2099 H 195.711 -5.32394 1.45811 0
M  V30 2100 H 196.188 -4.39181 0.0409492 0
M  V30 2101 H 196.794 -3.92169 1.64571 0
M  V30 2102 N 195.109 -0.891671 -1.2995 0
M  V30 2103 C 196.356 -0.513501 -1.95881 0
M  V30 2104 C 196.684 0.938655 -1.70351 0
M  V30 2105 O 195.939 1.67936 -1.00478 0
M  V30 2106 C 196.238 -0.742868 -3.49594 0
M  V30 2107 C 195.904 -2.17114 -3.95186 0
M  V30 2108 C 194.566 -2.56169 -4.07346 0
M  V30 2109 C 196.918 -3.10162 -4.18866 0
M  V30 2110 C 194.246 -3.87469 -4.4055 0
M  V30 2111 C 196.598 -4.41001 -4.53542 0
M  V30 2112 C 195.262 -4.79941 -4.63911 0
M  V30 2113 H 194.532 -0.187903 -0.71678 0
M  V30 2114 H 197.179 -1.1288 -1.54694 0
M  V30 2115 H 195.484 -0.044586 -3.91775 0
M  V30 2116 H 197.181 -0.429767 -3.9869 0
M  V30 2117 H 193.771 -1.85801 -3.86233 0
M  V30 2118 H 197.955 -2.81206 -4.08946 0
M  V30 2119 H 193.211 -4.17371 -4.46779 0
M  V30 2120 H 197.385 -5.13133 -4.70815 0
M  V30 2121 H 195.012 -5.81719 -4.89395 0
M  V30 2122 N 196.587 1.43421 -0.653314 0
M  V30 2123 C 197.834 2.01812 -0.166745 0
M  V30 2124 C 198.162 1.51535 1.21931 0
M  V30 2125 O 197.417 0.698975 1.82792 0
M  V30 2126 C 197.716 3.57176 -0.126623 0
M  V30 2127 C 197.382 4.26798 -1.45444 0
M  V30 2128 C 196.044 4.45534 -1.81805 0
M  V30 2129 C 198.396 4.66225 -2.32989 0
M  V30 2130 C 195.724 5.00961 -3.05377 0
M  V30 2131 C 198.076 5.23021 -3.55853 0
M  V30 2132 C 196.74 5.39973 -3.9241 0
M  V30 2133 H 196.01 0.738484 -0.0610162 0
M  V30 2134 H 198.657 1.71896 -0.84404 0
M  V30 2135 H 196.962 3.86634 0.634123 0
M  V30 2136 H 198.659 4.00112 0.266723 0
M  V30 2137 H 195.249 4.12561 -1.16153 0
M  V30 2138 H 199.433 4.51443 -2.06187 0
M  V30 2139 H 194.689 5.12271 -3.3375 0
M  V30 2140 H 198.863 5.52518 -4.23907 0
M  V30 2141 H 196.49 5.82687 -4.88242 0
M  V30 2142 N 198.065 0.39524 1.52563 0
M  V30 2143 C 199.481 0.0454682 1.59535 0
M  V30 2144 C 199.681 -1.44056 1.4089 0
M  V30 2145 O 198.737 -2.20579 1.22888 0
M  V30 2146 C 200.05 0.527963 2.96029 0
M  V30 2147 C 201.598 0.484733 3.09224 0
M  V30 2148 C 202.073 0.943512 4.48176 0
M  V30 2149 N 203.564 0.899765 4.54377 0
M  V30 2150 C 204.299 1.22609 5.60138 0
M  V30 2151 N 203.795 1.62319 6.73516 0
M  V30 2152 N 205.588 1.14696 5.50274 0
M  V30 2153 H 197.739 1.36261 1.62931 0
M  V30 2154 H 200.002 0.558887 0.765735 0
M  V30 2155 H 199.708 1.56607 3.14908 0
M  V30 2156 H 199.582 -0.0698056 3.77135 0
M  V30 2157 H 201.969 -0.544298 2.90037 0
M  V30 2158 H 202.05 1.11838 2.30056 0
M  V30 2159 H 201.694 1.9708 4.68104 0
M  V30 2160 H 201.624 0.286817 5.25818 0
M  V30 2161 H 204.115 0.607632 3.72983 0
M  V30 2162 H 204.428 1.85567 7.5019 0
M  V30 2163 H 202.773 1.66211 6.74833 0
M  V30 2164 H 205.964 0.835701 4.6058 0
M  V30 2165 H 206.137 1.40459 6.32594 0
M  V30 2166 N 199.544 -1.57102 0.125237 0
M  V30 2167 C 200.492 -2.16905 -0.839927 0
M  V30 2168 C 201.486 -1.11998 -1.27094 0
M  V30 2169 O 202.692 -1.3029 -1.24195 0
M  V30 2170 H 199.067 -0.694252 -0.288995 0
M  V30 2171 H 201.038 -2.96774 -0.311115 0
M  V30 2172 C 199.787 -2.78795 -2.07771 0
M  V30 2173 H 199.11 -3.59221 -1.755 0
M  V30 2174 H 200.55 -3.2417 -2.73295 0
M  V30 2175 C 199.009 -1.76193 -2.87155 0
M  V30 2176 O 199.539 -1.21909 -3.82755 0
M  V30 2177 N 197.745 -1.45991 -2.51267 0
M  V30 2178 H 197.292 -1.90325 -1.73592 0
M  V30 2179 H 197.25 -0.775844 -3.04677 0
M  V30 2180 N 201.022 0.148545 -1.56898 0
M  V30 2181 C 202.27 0.859717 -1.82902 0
M  V30 2182 C 202.591 1.81775 -0.70588 0
M  V30 2183 O 201.861 1.93994 0.272586 0
M  V30 2184 H 200.441 0.320469 -0.674766 0
M  V30 2185 H 203.103 0.142918 -1.94375 0
M  V30 2186 H 202.199 1.4229 -2.77777 0
M  V30 2187 N 202.5 1.5196 0.417844 0
M  V30 2188 C 203.447 1.74678 1.50852 0
M  V30 2189 C 204.417 0.588947 1.55308 0
M  V30 2190 O 205.602 0.825544 1.72016 0
M  V30 2191 C 202.742 1.89544 2.88387 0
M  V30 2192 C 201.855 3.17166 2.93309 0
M  V30 2193 C 200.99 3.22513 4.22088 0
M  V30 2194 C 200.029 4.44372 4.20951 0
M  V30 2195 N 199.166 4.47161 5.41287 0
M  V30 2196 H 204.006 2.67768 1.30783 0
M  V30 2197 H 201.543 1.32689 0.63498 0
M  V30 2198 H 203.501 1.96146 3.68216 0
M  V30 2199 H 202.131 0.998424 3.06971 0
M  V30 2200 H 201.183 3.19778 2.06024 0
M  V30 2201 H 202.495 4.07021 2.88332 0
M  V30 2202 H 201.649 3.28139 5.10303 0
M  V30 2203 H 200.388 2.30581 4.29748 0
M  V30 2204 H 199.393 4.38902 3.31127 0
M  V30 2205 H 200.618 5.3759 4.14938 0
M  V30 2206 H 198.564 3.58108 5.49632 0
M  V30 2207 H 198.481 5.3085 5.3827 0
M  V30 2208 H 199.749 4.57005 6.3148 0
M  V30 2209 N 203.978 -0.674533 1.42435 0
M  V30 2210 C 204.925 -1.78807 1.45934 0
M  V30 2211 C 205.895 -1.63157 0.311271 0
M  V30 2212 O 207.08 -1.83707 0.515383 0
M  V30 2213 C 204.22 -3.16839 1.36773 0
M  V30 2214 C 203.333 -3.43774 2.61617 0
M  V30 2215 C 202.468 -4.71536 2.44597 0
M  V30 2216 C 201.507 -4.91505 3.64814 0
M  V30 2217 N 200.644 -6.10508 3.46734 0
M  V30 2218 H 205.484 -1.75151 2.41093 0
M  V30 2219 H 203.021 -0.85504 1.19697 0
M  V30 2220 H 204.979 -3.96606 1.29459 0
M  V30 2221 H 203.609 -3.19619 0.452089 0
M  V30 2222 H 202.661 -2.58259 2.79297 0
M  V30 2223 H 203.973 -3.54423 3.50978 0
M  V30 2224 H 203.127 -5.59393 2.3487 0
M  V30 2225 H 201.866 -4.6317 1.52726 0
M  V30 2226 H 200.871 -4.0209 3.74972 0
M  V30 2227 H 202.096 -5.01716 4.57665 0
M  V30 2228 H 200.042 -6.03315 2.5758 0
M  V30 2229 H 199.959 -6.2202 4.29682 0
M  V30 2230 H 201.227 -7.01044 3.40819 0
M  V30 2231 N 205.456 -1.28612 -0.910864 0
M  V30 2232 C 206.681 -1.1891 -1.69927 0
M  V30 2233 C 207.106 0.248372 -1.86453 0
M  V30 2234 O 206.464 1.17961 -1.37676 0
M  V30 2235 C 206.512 -1.89578 -3.06745 0
M  V30 2236 O 205.616 -1.20521 -3.94396 0
M  V30 2237 H 204.957 -0.412632 -0.520222 0
M  V30 2238 H 207.487 -1.69985 -1.1387 0
M  V30 2239 H 207.497 -1.97597 -3.56958 0
M  V30 2240 H 206.172 -2.94136 -2.94035 0
M  V30 2241 H 204.749 -1.20684 -3.52831 0
M  V30 2242 N 206.934 1.1197 -1.10907 0
M  V30 2243 C 208.18 1.8386 -0.855773 0
M  V30 2244 C 208.513 1.84134 0.617103 0
M  V30 2245 O 207.788 1.29041 1.45529 0
M  V30 2246 C 208.071 3.31305 -1.411 0
M  V30 2247 C 207.924 3.39456 -2.9511 0
M  V30 2248 C 209.243 4.2721 -1.05736 0
M  V30 2249 H 206.362 0.667545 -0.312334 0
M  V30 2250 H 209.004 1.31331 -1.37303 0
M  V30 2251 H 207.154 3.76169 -0.97105 0
M  V30 2252 H 208.826 3.03191 -3.47668 0
M  V30 2253 H 207.069 2.79849 -3.31462 0
M  V30 2254 H 207.74 4.43209 -3.29044 0
M  V30 2255 H 210.216 3.90497 -1.43706 0
M  V30 2256 H 209.092 5.28775 -1.47269 0
M  V30 2257 H 209.353 4.42088 0.0325958 0
M  V30 2258 N 208.412 0.89855 1.29475 0
M  V30 2259 C 209.637 0.538561 2.00285 0
M  V30 2260 C 210.062 -0.869135 1.66816 0
M  V30 2261 O 209.42 -1.57831 0.892145 0
M  V30 2262 C 209.468 0.736475 3.52999 0
M  V30 2263 O 208.572 -0.211537 4.11857 0
M  V30 2264 H 207.913 0.210563 0.62973 0
M  V30 2265 H 210.443 1.20982 1.64998 0
M  V30 2266 H 210.453 0.640685 4.02938 0
M  V30 2267 H 209.128 1.76276 3.76696 0
M  V30 2268 H 207.705 -0.0682991 3.72837 0
M  V30 2269 N 209.89 -1.43072 0.660911 0
M  V30 2270 C 210.84 -2.27948 -0.04847 0
M  V30 2271 C 211.824 -1.40325 -0.787246 0
M  V30 2272 O 213.016 -1.63893 -0.668446 0
M  V30 2273 C 210.145 -3.28143 -1.00881 0
M  V30 2274 C 209.231 -4.23252 -0.268108 0
M  V30 2275 N 209.622 -5.00656 0.719528 0
M  V30 2276 C 207.92 -4.43092 -0.508493 0
M  V30 2277 C 208.621 -5.70019 1.15988 0
M  V30 2278 N 207.597 -5.41364 0.492584 0
M  V30 2279 H 211.399 -2.85213 0.709279 0
M  V30 2280 H 208.913 -1.54869 0.488822 0
M  V30 2281 H 210.91 -3.87736 -1.53188 0
M  V30 2282 H 209.57 -2.7244 -1.76654 0
M  V30 2283 H 210.581 -5.06115 1.09855 0
M  V30 2284 H 207.258 -3.98449 -1.24679 0
M  V30 2285 H 208.648 -6.4214 1.97751 0
M  V30 2286 N 211.368 -0.403325 -1.52352 0
M  V30 2287 C 212.316 0.439752 -2.28405 0
M  V30 2288 C 213.31 1.05089 -1.32863 0
M  V30 2289 O 214.516 0.989759 -1.50345 0
M  V30 2290 H 210.891 0.160587 -0.734653 0
M  V30 2291 H 212.862 -0.222983 -2.97566 0
M  V30 2292 C 211.611 1.54736 -3.11371 0
M  V30 2293 H 210.934 1.08643 -3.84755 0
M  V30 2294 H 212.374 2.1112 -3.67701 0
M  V30 2295 C 210.833 2.51141 -2.24566 0
M  V30 2296 O 211.363 3.54887 -1.88196 0
M  V30 2297 N 209.569 2.21213 -1.8845 0
M  V30 2298 H 209.116 1.36878 -2.18225 0
M  V30 2299 H 209.074 2.85963 -1.30662 0
M  V30 2300 N 212.846 1.57033 -0.133567 0
M  V30 2301 C 213.779 2.11824 0.848872 0
M  V30 2302 C 214.757 1.03833 1.2513 0
M  V30 2303 O 215.941 1.31579 1.34978 0
M  V30 2304 C 213.068 2.62692 2.138 0
M  V30 2305 C 212.114 3.82705 1.88253 0
M  V30 2306 S 212.947 5.2438 1.08563 0
M  V30 2307 C 214.103 5.78627 2.38624 0
M  V30 2308 H 214.336 2.94824 0.38289 0
M  V30 2309 H 211.869 1.5419 0.0804796 0
M  V30 2310 H 213.827 2.92652 2.87863 0
M  V30 2311 H 212.488 1.79847 2.57515 0
M  V30 2312 H 211.681 4.16496 2.83809 0
M  V30 2313 H 211.283 3.53437 1.22305 0
M  V30 2314 H 213.575 5.8924 3.34369 0
M  V30 2315 H 214.518 6.76443 2.09358 0
M  V30 2316 H 214.926 5.06783 2.48658 0
M  V30 2317 N 214.325 -0.140222 1.56975 0
M  V30 2318 C 215.553 -0.866437 1.87884 0
M  V30 2319 C 215.968 -1.74428 0.722517 0
M  V30 2320 O 215.325 -1.79891 -0.30749 0
M  V30 2321 C 215.376 -1.71753 3.18093 0
M  V30 2322 O 215.097 -0.875056 4.29272 0
M  V30 2323 C 216.598 -2.55074 3.62563 0
M  V30 2324 H 213.818 -0.25019 0.622612 0
M  V30 2325 H 216.362 -0.130977 2.0408 0
M  V30 2326 H 214.517 -2.40598 3.03631 0
M  V30 2327 H 214.931 -1.46002 5.03769 0
M  V30 2328 H 216.405 -3.10356 4.5649 0
M  V30 2329 H 216.882 -3.31434 2.88181 0
M  V30 2330 H 217.488 -1.91509 3.79743 0
M  V30 2331 N 215.803 -1.52179 -0.40978 0
M  V30 2332 C 216.766 -1.74853 -1.48186 0
M  V30 2333 C 217.766 -0.618417 -1.48433 0
M  V30 2334 O 218.956 -0.886286 -1.49969 0
M  V30 2335 C 216.088 -1.8303 -2.87598 0
M  V30 2336 H 217.281 -2.70559 -1.29374 0
M  V30 2337 H 214.834 -1.42586 -0.640233 0
M  V30 2338 H 215.569 -0.89236 -3.11781 0
M  V30 2339 H 215.354 -2.65187 -2.88822 0
M  V30 2340 H 216.844 -2.02316 -3.65319 0
M  V30 2341 N 217.281 0.66697 -1.42791 0
M  V30 2342 C 218.692 1.2478 -1.38877 0
M  V30 2343 C 219.043 1.96012 -0.0859426 0
M  V30 2344 O 218.168 2.00463 0.815081 0
M  V30 2345 C 218.763 2.26938 -2.51564 0
M  V30 2346 C 217.322 2.80529 -2.50959 0
M  V30 2347 C 216.469 1.54965 -2.29959 0
M  V30 2348 H 219.42 0.459853 -1.51892 0
M  V30 2349 H 219.441 3.08834 -2.22265 0
M  V30 2350 H 218.953 1.75065 -3.46372 0
M  V30 2351 H 217.054 3.36502 -1.59991 0
M  V30 2352 H 217.167 3.29012 -3.48265 0
M  V30 2353 H 215.531 1.81817 -1.78366 0
M  V30 2354 H 216.314 1.05047 -3.26833 0
M  V30 2355 N 218.759 1.29093 0.90403 0
M  V30 2356 C 219.707 1.13727 2.02901 0
M  V30 2357 C 220.701 0.0539853 1.69314 0
M  V30 2358 O 221.907 0.213469 1.7873 0
M  V30 2359 H 218.282 0.35117 0.664969 0
M  V30 2360 H 220.253 2.08982 2.13001 0
M  V30 2361 C 219.002 0.826066 3.37745 0
M  V30 2362 H 218.325 1.65164 3.64089 0
M  V30 2363 H 219.765 0.758559 4.17159 0
M  V30 2364 C 218.224 -0.470541 3.33598 0
M  V30 2365 O 218.754 -1.49792 3.72727 0
M  V30 2366 N 216.96 -0.474812 2.86695 0
M  V30 2367 H 216.507 0.361692 2.55048 0
M  V30 2368 H 216.465 -1.34236 2.84303 0
M  V30 2369 N 220.237 -1.11381 1.11499 0
M  V30 2370 C 221.184 -2.17439 0.773887 0
M  V30 2371 C 222.154 -1.64132 -0.254899 0
M  V30 2372 O 223.339 -1.90345 -0.13168 0
M  V30 2373 C 220.479 -3.44373 0.223917 0
M  V30 2374 C 219.592 -4.1168 1.30934 0
M  V30 2375 C 218.727 -5.263 0.71984 0
M  V30 2376 C 217.766 -5.85493 1.78507 0
M  V30 2377 N 216.903 -6.91507 1.21502 0
M  V30 2378 H 221.743 -2.45962 1.68246 0
M  V30 2379 H 219.28 -1.20744 0.840191 0
M  V30 2380 H 221.238 -4.17047 -0.112921 0
M  V30 2381 H 219.868 -3.16232 -0.647851 0
M  V30 2382 H 218.92 -3.37073 1.76312 0
M  V30 2383 H 220.232 -4.51729 2.11524 0
M  V30 2384 H 219.386 -6.05785 0.333094 0
M  V30 2385 H 218.125 -4.87559 -0.117377 0
M  V30 2386 H 217.13 -5.04686 2.18111 0
M  V30 2387 H 218.355 -6.26301 2.62533 0
M  V30 2388 H 216.301 -6.54783 0.399455 0
M  V30 2389 H 216.218 -7.30214 1.95763 0
M  V30 2390 H 217.486 -7.74795 0.855181 0
M  V30 2391 N 221.715 -0.905404 -1.28997 0
M  V30 2392 C 222.645 -0.404212 -2.29975 0
M  V30 2393 C 223.626 0.523784 -1.61835 0
M  V30 2394 O 224.811 0.433298 -1.89304 0
M  V30 2395 C 221.941 0.364042 -3.45387 0
M  V30 2396 C 220.895 -0.474048 -4.25367 0
M  V30 2397 C 220.221 0.422045 -5.33032 0
M  V30 2398 C 221.521 -1.72696 -4.92923 0
M  V30 2399 H 223.215 -1.24807 -2.72146 0
M  V30 2400 H 220.761 -0.601585 -1.30832 0
M  V30 2401 H 222.714 0.725447 -4.15109 0
M  V30 2402 H 221.438 1.24174 -3.02074 0
M  V30 2403 H 220.097 -0.81786 -3.57361 0
M  V30 2404 H 219.745 1.29804 -4.85963 0
M  V30 2405 H 219.445 -0.135057 -5.87445 0
M  V30 2406 H 220.969 0.779517 -6.05604 0
M  V30 2407 H 222.383 -1.43495 -5.55051 0
M  V30 2408 H 220.78 -2.22582 -5.57295 0
M  V30 2409 H 221.85 -2.45964 -4.17887 0
M  V30 2410 N 223.193 1.4272 -0.668489 0
M  V30 2411 C 224.44 2.01624 -0.18814 0
M  V30 2412 C 224.768 1.5282 1.20317 0
M  V30 2413 O 224.023 0.718323 1.8204 0
M  V30 2414 C 224.322 3.57021 -0.164499 0
M  V30 2415 C 223.988 4.25232 -1.49962 0
M  V30 2416 C 222.65 4.4358 -1.8652 0
M  V30 2417 C 225.002 4.63727 -2.37921 0
M  V30 2418 C 222.33 4.97694 -3.10674 0
M  V30 2419 C 224.682 5.19218 -3.6138 0
M  V30 2420 C 223.346 5.3578 -3.98115 0
M  V30 2421 H 222.616 0.737795 -0.0688454 0
M  V30 2422 H 225.263 1.70991 -0.862225 0
M  V30 2423 H 223.568 3.87285 0.593079 0
M  V30 2424 H 225.265 4.00372 0.224271 0
M  V30 2425 H 221.855 4.11306 -1.20522 0
M  V30 2426 H 226.039 4.4923 -2.10964 0
M  V30 2427 H 221.295 5.08702 -3.39164 0
M  V30 2428 H 225.469 5.4799 -4.29743 0
M  V30 2429 H 223.096 5.77475 -4.94395 0
M  V30 2430 N 224.671 0.411399 1.52136 0
M  V30 2431 C 226.087 0.0623865 1.59478 0
M  V30 2432 C 226.287 -1.42554 1.4241 0
M  V30 2433 O 225.343 -2.19263 1.2522 0
M  V30 2434 C 226.656 0.559331 2.95452 0
M  V30 2435 C 228.204 0.517503 3.08692 0
M  V30 2436 C 228.679 0.990994 4.4715 0
M  V30 2437 N 230.17 0.947908 4.53397 0
M  V30 2438 C 230.905 1.28544 5.58806 0
M  V30 2439 N 230.401 1.69454 6.71757 0
M  V30 2440 N 232.194 1.20526 5.49026 0
M  V30 2441 H 224.345 1.37982 1.61477 0
M  V30 2442 H 226.608 0.566977 0.759764 0
M  V30 2443 H 226.314 1.59938 3.1323 0
M  V30 2444 H 226.188 -0.0298014 3.77188 0
M  V30 2445 H 228.575 -0.513505 2.90598 0
M  V30 2446 H 228.656 1.14272 2.28857 0
M  V30 2447 H 228.3 2.02034 4.65988 0
M  V30 2448 H 228.23 0.34257 5.25485 0
M  V30 2449 H 230.721 0.647157 3.72317 0
M  V30 2450 H 231.034 1.93513 7.48179 0
M  V30 2451 H 229.379 1.73359 6.73032 0
M  V30 2452 H 232.57 0.884505 4.59667 0
M  V30 2453 H 232.743 1.47161 6.31069 0
M  V30 2454 N 226.149 -1.5696 0.141893 0
M  V30 2455 C 227.398 -1.95135 -0.510427 0
M  V30 2456 C 227.711 -1.02896 -1.66348 0
M  V30 2457 O 228.917 -1.30629 -2.38009 0
M  V30 2458 C 227.373 -3.46876 -0.959427 0
M  V30 2459 C 226.981 -4.47691 0.166419 0
M  V30 2460 C 228.725 -3.93927 -1.58183 0
M  V30 2461 C 226.632 -5.90636 -0.300565 0
M  V30 2462 H 225.562 -0.728494 -0.194454 0
M  V30 2463 H 228.213 -1.8211 0.22542 0
M  V30 2464 H 226.595 -3.55215 -1.75038 0
M  V30 2465 H 227.769 -4.51043 0.94325 0
M  V30 2466 H 226.084 -4.10527 0.696905 0
M  V30 2467 H 228.681 -4.98158 -1.94275 0
M  V30 2468 H 229.024 -3.3519 -2.46888 0
M  V30 2469 H 229.557 -3.88484 -0.855863 0
M  V30 2470 H 226.296 -6.5318 0.550989 0
M  V30 2471 H 225.816 -5.90655 -1.04338 0
M  V30 2472 H 227.495 -6.42588 -0.754265 0
M  V30 2473 N 227.627 0.131896 -1.57047 0
M  V30 2474 C 228.56 1.19236 -1.94571 0
M  V30 2475 C 229.538 1.40782 -0.813576 0
M  V30 2476 O 230.722 1.55148 -1.07058 0
M  V30 2477 C 227.849 2.54858 -2.23081 0
M  V30 2478 C 226.895 2.49817 -3.45679 0
M  V30 2479 S 227.728 1.95036 -4.98719 0
M  V30 2480 C 228.884 3.32357 -5.30367 0
M  V30 2481 H 229.117 0.872297 -2.84215 0
M  V30 2482 H 226.65 0.338134 -1.50652 0
M  V30 2483 H 228.608 3.32898 -2.40185 0
M  V30 2484 H 227.269 2.84047 -1.34074 0
M  V30 2485 H 226.462 3.49688 -3.62952 0
M  V30 2486 H 226.064 1.79892 -3.27895 0
M  V30 2487 H 228.356 4.28525 -5.2476 0
M  V30 2488 H 229.299 3.19923 -6.31708 0
M  V30 2489 H 229.707 3.3019 -4.57859 0
M  V30 2490 N 229.106 1.52395 0.401703 0
M  V30 2491 C 230.522 1.41363 0.740864 0
M  V30 2492 C 230.722 0.523982 1.94568 0
M  V30 2493 O 229.778 -0.00741204 2.52499 0
M  V30 2494 C 231.091 2.84011 0.987847 0
M  V30 2495 C 232.639 2.93404 1.09011 0
M  V30 2496 C 233.114 4.37036 1.3698 0
M  V30 2497 N 234.605 4.40304 1.43829 0
M  V30 2498 C 235.34 5.48508 1.67112 0
M  V30 2499 N 234.836 6.66819 1.87949 0
M  V30 2500 N 236.629 5.36034 1.69187 0
M  V30 2501 H 228.78 2.08765 -0.391262 0
M  V30 2502 H 231.043 0.941265 -0.112798 0
M  V30 2503 H 230.749 3.51265 0.174835 0
M  V30 2504 H 230.623 3.25502 1.906 0
M  V30 2505 H 233.01 2.26325 1.8937 0
M  V30 2506 H 233.091 2.55359 0.15015 0
M  V30 2507 H 232.735 5.04676 0.571353 0
M  V30 2508 H 232.665 4.72623 2.3224 0
M  V30 2509 H 235.156 3.55024 1.29486 0
M  V30 2510 H 235.469 7.45063 2.05185 0
M  V30 2511 H 233.814 6.6987 1.85199 0
M  V30 2512 H 237.005 4.42579 1.52451 0
M  V30 2513 H 237.178 6.20434 1.86993 0
M  V30 2514 N 230.584 -0.659388 1.43143 0
M  V30 2515 C 231.532 -1.79374 1.4808 0
M  V30 2516 C 232.526 -1.65639 0.354988 0
M  V30 2517 O 233.732 -1.7206 0.528704 0
M  V30 2518 H 230.107 -0.591705 0.4641 0
M  V30 2519 H 232.078 -1.72329 2.43609 0
M  V30 2520 C 230.827 -3.17606 1.41499 0
M  V30 2521 H 230.15 -3.28809 2.27431 0
M  V30 2522 H 231.59 -3.96951 1.49015 0
M  V30 2523 C 230.049 -3.36642 0.131765 0
M  V30 2524 O 230.579 -3.93461 -0.809386 0
M  V30 2525 N 228.785 -2.90567 0.0439396 0
M  V30 2526 H 228.332 -2.44513 0.810619 0
M  V30 2527 H 228.29 -3.03681 -0.813969 0
M  V30 2528 N 232.062 -1.29571 -0.897171 0
M  V30 2529 C 233.31 -1.17456 -1.64464 0
M  V30 2530 C 233.631 0.273698 -1.9307 0
M  V30 2531 O 232.901 1.18684 -1.55855 0
M  V30 2532 H 231.481 -0.431706 -0.609622 0
M  V30 2533 H 234.143 -1.62531 -1.07562 0
M  V30 2534 H 233.239 -1.72648 -2.59998 0
M  V30 2535 N 233.54 1.10788 -1.12088 0
M  V30 2536 C 234.768 1.86461 -0.896651 0
M  V30 2537 C 235.183 1.80492 0.553912 0
M  V30 2538 O 234.54 1.19102 1.38278 0
M  V30 2539 C 234.591 3.35006 -1.35843 0
M  V30 2540 O 234.312 3.40866 -2.75213 0
M  V30 2541 C 235.813 4.27565 -1.1706 0
M  V30 2542 H 233.033 0.589425 -0.320654 0
M  V30 2543 H 235.577 1.40076 -1.48993 0
M  V30 2544 H 233.732 3.7887 -0.808458 0
M  V30 2545 H 234.146 4.33411 -2.9539 0
M  V30 2546 H 235.62 5.30007 -1.54263 0
M  V30 2547 H 236.097 4.3906 -0.110814 0
M  V30 2548 H 236.703 3.89501 -1.70789 0
M  V30 2549 N 235.018 0.912232 1.28515 0
M  V30 2550 C 236.267 0.540504 1.94323 0
M  V30 2551 C 236.58 -0.920044 1.72611 0
M  V30 2552 O 237.786 -1.39986 2.32629 0
M  V30 2553 C 236.242 0.915803 3.48053 0
M  V30 2554 C 235.85 2.39598 3.78546 0
M  V30 2555 C 237.594 0.614588 4.20027 0
M  V30 2556 C 235.501 2.71148 5.25578 0
M  V30 2557 H 234.431 0.198418 0.727424 0
M  V30 2558 H 237.082 1.11094 1.46049 0
M  V30 2559 H 235.464 0.274168 3.9505 0
M  V30 2560 H 236.638 3.08422 3.42364 0
M  V30 2561 H 234.953 2.66749 3.1974 0
M  V30 2562 H 237.55 0.827002 5.28266 0
M  V30 2563 H 237.893 -0.447531 4.13887 0
M  V30 2564 H 238.426 1.21462 3.78803 0
M  V30 2565 H 235.165 3.76207 5.36794 0
M  V30 2566 H 234.685 2.0696 5.62963 0
M  V30 2567 H 236.364 2.58072 5.93302 0
M  V30 2568 N 236.496 -1.42363 0.676048 0
M  V30 2569 C 237.426 -2.33497 0.0124832 0
M  V30 2570 C 238.407 -1.50748 -0.787981 0
M  V30 2571 O 239.592 -1.79346 -0.744884 0
M  V30 2572 C 236.722 -3.34377 -0.938582 0
M  V30 2573 C 235.676 -4.27289 -0.246622 0
M  V30 2574 C 235.002 -5.18386 -1.31071 0
M  V30 2575 C 236.302 -5.14916 0.875125 0
M  V30 2576 H 237.996 -2.89233 0.773593 0
M  V30 2577 H 235.542 -1.39073 0.37346 0
M  V30 2578 H 237.495 -3.97044 -1.41188 0
M  V30 2579 H 236.219 -2.76947 -1.73113 0
M  V30 2580 H 234.878 -3.66018 0.206456 0
M  V30 2581 H 234.526 -4.57282 -2.09528 0
M  V30 2582 H 234.226 -5.81378 -0.852839 0
M  V30 2583 H 235.75 -5.83929 -1.78492 0
M  V30 2584 H 237.164 -5.71262 0.482983 0
M  V30 2585 H 235.561 -5.86747 1.25887 0
M  V30 2586 H 236.631 -4.53242 1.72335 0
M  V30 2587 N 237.974 -0.419461 -1.51915 0
M  V30 2588 C 239.204 0.151915 -2.06041 0
M  V30 2589 C 239.612 1.38539 -1.28855 0
M  V30 2590 O 238.955 1.80592 -0.336463 0
M  V30 2591 C 239.017 0.557119 -3.55157 0
M  V30 2592 C 238.681 -0.567054 -4.53468 0
M  V30 2593 C 239.678 -1.43379 -4.99738 0
M  V30 2594 C 237.363 -0.742693 -4.96779 0
M  V30 2595 C 239.357 -2.46102 -5.87973 0
M  V30 2596 C 237.044 -1.77322 -5.84808 0
M  V30 2597 C 238.042 -2.63078 -6.30301 0
M  V30 2598 O 237.73 -3.64364 -7.16585 0
M  V30 2599 H 237.462 0.0193293 -0.675724 0
M  V30 2600 H 240.016 -0.592073 -1.96682 0
M  V30 2601 H 238.246 1.35355 -3.62238 0
M  V30 2602 H 239.935 1.05759 -3.9188 0
M  V30 2603 H 240.701 -1.30954 -4.66986 0
M  V30 2604 H 236.58 -0.0848307 -4.60922 0
M  V30 2605 H 240.124 -3.13071 -6.23404 0
M  V30 2606 H 236.021 -1.89773 -6.16974 0
M  V30 2607 H 236.789 -3.60731 -7.34721 0
M  V30 2608 N 239.452 1.56882 -0.150215 0
M  V30 2609 C 240.68 2.00593 0.506948 0
M  V30 2610 C 241.095 1.03033 1.58208 0
M  V30 2611 O 240.452 0.0278396 1.82479 0
M  V30 2612 C 240.503 3.44209 1.10465 0
M  V30 2613 O 240.224 4.3804 0.0724636 0
M  V30 2614 C 241.725 4.03214 1.84211 0
M  V30 2615 H 238.945 0.65795 0.13169 0
M  V30 2616 H 241.489 2.03018 -0.245743 0
M  V30 2617 H 239.644 3.42625 1.80795 0
M  V30 2618 H 240.058 5.22007 0.510793 0
M  V30 2619 H 241.532 5.0569 2.21318 0
M  V30 2620 H 242.009 3.44107 2.72923 0
M  V30 2621 H 242.615 4.08437 1.18572 0
M  V30 2622 N 240.93 -0.123565 1.57115 0
M  V30 2623 C 241.863 -1.18202 1.95201 0
M  V30 2624 C 242.841 -1.40349 0.821031 0
M  V30 2625 O 244.025 -1.54578 1.07879 0
M  V30 2626 C 241.152 -2.53671 2.24429 0
M  V30 2627 C 240.198 -2.4798 3.46999 0
M  V30 2628 S 241.031 -1.92389 4.99747 0
M  V30 2629 C 242.187 -3.2954 5.32123 0
M  V30 2630 H 242.42 -0.857212 2.84674 0
M  V30 2631 H 239.953 -0.33014 1.50829 0
M  V30 2632 H 241.911 -3.3162 2.41947 0
M  V30 2633 H 240.572 -2.83332 1.35579 0
M  V30 2634 H 239.765 -3.47758 3.64801 0
M  V30 2635 H 239.367 -1.7815 3.28844 0
M  V30 2636 H 241.659 -4.25736 5.27025 0
M  V30 2637 H 242.602 -3.16569 6.33395 0
M  V30 2638 H 243.01 -3.27758 4.59603 0
M  V30 2639 N 242.408 -1.52605 -0.393616 0
M  V30 2640 C 243.824 -1.41753 -0.733357 0
M  V30 2641 C 244.024 -0.534293 -1.94287 0
M  V30 2642 O 243.08 -0.0059787 -2.52499 0
M  V30 2643 C 244.393 -2.84531 -0.972772 0
M  V30 2644 C 245.941 -2.93978 -1.07453 0
M  V30 2645 C 246.416 -4.37756 -1.3466 0
M  V30 2646 N 247.907 -4.4106 -1.41492 0
M  V30 2647 C 248.642 -5.49387 -1.642 0
M  V30 2648 N 248.138 -6.67806 -1.8441 0
M  V30 2649 N 249.931 -5.36923 -1.66342 0
M  V30 2650 H 242.082 -2.08555 0.402328 0
M  V30 2651 H 244.345 -0.940654 0.117789 0
M  V30 2652 H 244.051 -3.51353 -0.156204 0
M  V30 2653 H 243.925 -3.26508 -1.88871 0
M  V30 2654 H 246.312 -2.27326 -1.88167 0
M  V30 2655 H 246.393 -2.55435 -0.136605 0
M  V30 2656 H 246.037 -5.04972 -0.544581 0
M  V30 2657 H 245.967 -4.73848 -2.2973 0
M  V30 2658 H 248.458 -3.55705 -1.27601 0
M  V30 2659 H 248.771 -7.46141 -2.01231 0
M  V30 2660 H 247.116 -6.70843 -1.81644 0
M  V30 2661 H 250.307 -4.43381 -1.50102 0
M  V30 2662 H 250.48 -6.21416 -1.837 0
M  V30 2663 N 243.887 0.651787 -1.4349 0
M  V30 2664 C 244.817 1.77621 -1.51569 0
M  V30 2665 C 245.798 1.66022 -0.370253 0
M  V30 2666 O 246.983 1.85095 -0.587658 0
M  V30 2667 C 244.113 3.16056 -1.43966 0
M  V30 2668 C 243.067 3.4242 -2.56774 0
M  V30 2669 C 242.393 4.8067 -2.34223 0
M  V30 2670 C 243.693 3.37023 -3.99015 0
M  V30 2671 H 245.387 1.71117 -2.45681 0
M  V30 2672 H 242.933 0.821825 -1.18246 0
M  V30 2673 H 244.886 3.94472 -1.48221 0
M  V30 2674 H 243.61 3.23293 -0.463586 0
M  V30 2675 H 242.269 2.66375 -2.51873 0
M  V30 2676 H 241.917 4.84585 -1.34856 0
M  V30 2677 H 241.617 4.9927 -3.09844 0
M  V30 2678 H 243.141 5.61342 -2.40265 0
M  V30 2679 H 244.555 4.05374 -4.05395 0
M  V30 2680 H 242.952 3.67159 -4.74673 0
M  V30 2681 H 244.022 2.3518 -4.2405 0
M  V30 2682 N 245.365 1.30045 0.890287 0
M  V30 2683 C 246.593 1.21472 1.67487 0
M  V30 2684 C 247.008 -0.223241 1.87476 0
M  V30 2685 O 246.365 -1.14828 1.41847 0
M  V30 2686 C 246.416 1.93394 3.05419 0
M  V30 2687 O 246.137 3.31576 2.86337 0
M  V30 2688 C 247.638 1.91414 3.99844 0
M  V30 2689 H 244.858 0.420604 0.522813 0
M  V30 2690 H 247.402 1.7158 1.11268 0
M  V30 2691 H 245.557 1.47099 3.58386 0
M  V30 2692 H 245.971 3.67929 3.73802 0
M  V30 2693 H 247.445 2.46285 4.94012 0
M  V30 2694 H 247.922 0.891833 4.3005 0
M  V30 2695 H 248.528 2.37496 3.52811 0
M  V30 2696 N 246.843 -1.10192 1.12674 0
M  V30 2697 C 248.092 -1.81573 0.8783 0
M  V30 2698 C 248.405 -1.86249 -0.597557 0
M  V30 2699 O 249.611 -2.5386 -0.962681 0
M  V30 2700 C 248.067 -3.26149 1.52167 0
M  V30 2701 C 247.675 -3.29763 3.03249 0
M  V30 2702 C 249.419 -4.0234 1.3536 0
M  V30 2703 C 247.326 -4.68815 3.60508 0
M  V30 2704 H 246.256 -0.680394 0.324931 0
M  V30 2705 H 248.907 -1.23902 1.35353 0
M  V30 2706 H 247.289 -3.83832 0.974104 0
M  V30 2707 H 248.463 -2.8189 3.6452 0
M  V30 2708 H 246.778 -2.67059 3.19481 0
M  V30 2709 H 249.375 -5.05058 1.75559 0
M  V30 2710 H 249.718 -4.15235 0.297554 0
M  V30 2711 H 250.251 -3.51079 1.87052 0
M  V30 2712 H 246.99 -4.61121 4.65884 0
M  V30 2713 H 246.51 -5.17045 3.04014 0
M  V30 2714 H 248.189 -5.37785 3.59717 0
M  V30 2715 N 248.321 -0.919034 -1.28029 0
M  V30 2716 C 249.546 -0.570357 -1.99403 0
M  V30 2717 C 249.971 0.842486 -1.68178 0
M  V30 2718 O 249.329 1.56391 -0.917141 0
M  V30 2719 C 249.377 -0.792541 -3.51783 0
M  V30 2720 O 248.481 0.145988 -4.12142 0
M  V30 2721 H 247.822 -0.220555 -0.6263 0
M  V30 2722 H 250.352 -1.23592 -1.63053 0
M  V30 2723 H 250.362 -0.704708 -4.01868 0
M  V30 2724 H 249.037 -1.82247 -3.73844 0
M  V30 2725 H 247.614 0.00897528 -3.72899 0
M  V30 2726 N 249.799 1.42003 -0.683588 0
M  V30 2727 C 250.762 2.29191 -0.0198243 0
M  V30 2728 C 251.762 1.43773 0.72013 0
M  V30 2729 O 252.952 1.65061 0.556815 0
M  V30 2730 C 250.084 3.26435 0.982487 0
M  V30 2731 H 251.277 2.8938 -0.787345 0
M  V30 2732 H 248.83 1.49789 -0.446418 0
M  V30 2733 H 249.565 2.71203 1.77819 0
M  V30 2734 H 249.35 3.89449 0.455182 0
M  V30 2735 H 250.84 3.918 1.44508 0
M  V30 2736 N 251.277 0.427512 1.51691 0
M  V30 2737 C 252.187 -0.39527 2.31246 0
M  V30 2738 C 253.203 -1.03674 1.39742 0
M  V30 2739 O 254.379 -1.03425 1.72816 0
M  V30 2740 C 251.444 -1.48706 3.13189 0
M  V30 2741 C 250.505 -0.866743 4.20459 0
M  V30 2742 C 249.738 -1.90651 4.98486 0
M  V30 2743 O 249.961 -3.12733 4.77026 0
M  V30 2744 O 248.895 -1.5025 5.82845 0
M  V30 2745 H 252.721 0.253918 3.02637 0
M  V30 2746 H 250.306 0.190274 1.48183 0
M  V30 2747 H 252.188 -2.12047 3.64162 0
M  V30 2748 H 250.863 -2.12051 2.44573 0
M  V30 2749 H 249.77 -0.195544 3.73589 0
M  V30 2750 H 251.103 -0.276934 4.9142 0
M  V30 2751 N 252.755 -1.56801 0.158532 0
M  V30 2752 C 253.995 -1.98383 -0.49229 0
M  V30 2753 C 254.359 -1.04184 -1.61275 0
M  V30 2754 O 255.56 -1.34856 -2.32524 0
M  V30 2755 C 253.831 -3.4385 -0.974766 0
M  V30 2756 S 255.39 -4.07459 -1.62857 0
M  V30 2757 H 252.208 -0.693041 -0.158794 0
M  V30 2758 H 254.81 -1.93856 0.252974 0
M  V30 2759 H 253.514 -4.10131 -0.148688 0
M  V30 2760 H 253.045 -3.52115 -1.75438 0
M  V30 2761 H 255.06 -4.01458 -2.91627 0
M  V30 2762 N 254.233 0.115231 -1.57178 0
M  V30 2763 C 255.644 0.67197 -1.74188 0
M  V30 2764 C 255.995 1.80125 -0.777777 0
M  V30 2765 O 255.12 2.16346 0.0484376 0
M  V30 2766 C 255.715 1.22573 -3.1585 0
M  V30 2767 C 254.274 1.72872 -3.34353 0
M  V30 2768 C 253.421 0.629972 -2.70049 0
M  V30 2769 H 256.372 -0.110712 -1.58313 0
M  V30 2770 H 256.393 2.09535 -3.17609 0
M  V30 2771 H 255.905 0.403598 -3.85996 0
M  V30 2772 H 254.006 2.5755 -2.69256 0
M  V30 2773 H 254.119 1.83557 -4.42542 0
M  V30 2774 H 252.483 1.0645 -2.31388 0
M  V30 2775 H 253.266 -0.181241 -3.42821 0
M  V30 2776 N 255.711 1.52812 0.385517 0
M  V30 2777 C 256.644 1.72592 1.49289 0
M  V30 2778 C 257.622 0.573819 1.52138 0
M  V30 2779 O 258.806 0.80404 1.70492 0
M  V30 2780 C 255.933 1.78669 2.87741 0
M  V30 2781 C 254.979 3.00455 3.02703 0
M  V30 2782 S 255.812 4.60366 2.73538 0
M  V30 2783 C 256.968 4.69263 4.14177 0
M  V30 2784 H 257.201 2.66248 1.32285 0
M  V30 2785 H 254.734 1.43148 0.578611 0
M  V30 2786 H 256.692 1.82855 3.67524 0
M  V30 2787 H 255.353 0.861 3.02069 0
M  V30 2788 H 254.546 3.01258 4.04054 0
M  V30 2789 H 254.148 2.94278 2.30817 0
M  V30 2790 H 256.44 4.48092 5.08153 0
M  V30 2791 H 257.383 5.71276 4.18388 0
M  V30 2792 H 257.791 3.98072 4.00249 0
M  V30 2793 N 257.189 -0.644168 1.43834 0
M  V30 2794 C 258.605 -0.960875 1.27434 0
M  V30 2795 C 258.805 -2.00499 0.200618 0
M  V30 2796 O 257.861 -2.49018 -0.417906 0
M  V30 2797 C 259.174 -1.43653 2.64167 0
M  V30 2798 C 260.722 -1.55271 2.71772 0
M  V30 2799 C 261.197 -2.06224 4.08944 0
M  V30 2800 N 262.688 -2.13513 4.11055 0
M  V30 2801 C 263.423 -2.54081 5.14033 0
M  V30 2802 N 262.919 -2.9388 6.27381 0
M  V30 2803 N 264.712 -2.54101 5.01387 0
M  V30 2804 H 256.863 0.0465779 2.12349 0
M  V30 2805 H 259.126 -0.0417638 0.94708 0
M  V30 2806 H 258.832 -0.743706 3.43747 0
M  V30 2807 H 258.706 -2.40993 2.90176 0
M  V30 2808 H 261.093 -2.23653 1.92519 0
M  V30 2809 H 261.174 -0.563395 2.49519 0
M  V30 2810 H 260.818 -1.38441 4.88668 0
M  V30 2811 H 260.748 -3.06003 4.28567 0
M  V30 2812 H 263.239 -1.85493 3.29242 0
M  V30 2813 H 263.552 -3.2361 7.01781 0
M  V30 2814 H 261.897 -2.91663 6.30839 0
M  V30 2815 H 265.088 -2.22391 4.11898 0
M  V30 2816 H 265.261 -2.85394 5.81768 0
M  V30 2817 N 258.668 -1.30515 -0.883378 0
M  V30 2818 C 259.598 -1.19607 -2.00541 0
M  V30 2819 C 260.579 -0.086346 -1.69881 0
M  V30 2820 O 261.764 -0.268654 -1.92333 0
M  V30 2821 C 258.894 -0.888758 -3.35736 0
M  V30 2822 C 257.848 -1.95659 -3.8066 0
M  V30 2823 C 257.174 -1.50224 -5.13164 0
M  V30 2824 C 258.474 -3.36788 -3.99213 0
M  V30 2825 H 260.168 -2.13476 -2.09925 0
M  V30 2826 H 257.714 -1.02775 -1.00863 0
M  V30 2827 H 259.667 -0.799094 -4.13754 0
M  V30 2828 H 258.391 0.0856125 -3.26488 0
M  V30 2829 H 257.05 -2.03591 -3.04871 0
M  V30 2830 H 256.698 -0.516092 -5.00345 0
M  V30 2831 H 256.398 -2.2165 -5.44192 0
M  V30 2832 H 257.922 -1.42639 -5.93706 0
M  V30 2833 H 259.336 -3.31605 -4.67665 0
M  V30 2834 H 257.733 -4.06314 -4.41621 0
M  V30 2835 H 258.803 -3.78561 -3.03017 0
M  V30 2836 N 260.146 1.09593 -1.13257 0
M  V30 2837 C 261.392 1.82003 -0.89458 0
M  V30 2838 C 261.725 1.85402 0.577906 0
M  V30 2839 O 261 1.32099 1.42759 0
M  V30 2840 C 261.283 3.28237 -1.48096 0
M  V30 2841 C 261.136 3.3312 -3.02244 0
M  V30 2842 C 262.455 4.24871 -1.14774 0
M  V30 2843 H 259.574 0.66077 -0.326424 0
M  V30 2844 H 262.216 1.28389 -1.40058 0
M  V30 2845 H 260.366 3.74024 -1.05062 0
M  V30 2846 H 262.038 2.95748 -3.54021 0
M  V30 2847 H 260.281 2.72756 -3.37323 0
M  V30 2848 H 260.952 4.3613 -3.38371 0
M  V30 2849 H 263.428 3.87361 -1.51957 0
M  V30 2850 H 262.304 5.25532 -1.58452 0
M  V30 2851 H 262.565 4.42058 -0.0611849 0
M  V30 2852 N 261.624 0.925811 1.2754 0
M  V30 2853 C 262.901 0.483726 1.89524 0
M  V30 2854 C 263.281 -1.03809 1.83812 0
M  V30 2855 O 262.629 -1.89143 1.28207 0
M  V30 2856 C 262.839 1.02769 3.33526 0
M  V30 2857 C 264.187 1.08703 4.10449 0
M  V30 2858 O 265.211 0.977175 3.42534 0
M  V30 2859 O 264.07 1.25599 5.31871 0
M  V30 2860 H 261.164 0.15529 0.812289 0
M  V30 2861 H 263.71 1.01738 1.35822 0
M  V30 2862 H 262.482 2.07155 3.31967 0
M  V30 2863 H 262.105 0.475567 3.94746 0
M  V30 2864 N 263.102 -1.41638 0.69111 0
M  V30 2865 C 264.349 -2.01299 0.220193 0
M  V30 2866 C 264.677 -1.54715 -1.17871 0
M  V30 2867 O 263.932 -0.747193 -1.80874 0
M  V30 2868 C 264.231 -3.56714 0.221277 0
M  V30 2869 C 263.897 -4.22792 1.56709 0
M  V30 2870 C 262.559 -4.40557 1.93554 0
M  V30 2871 C 264.911 -4.59883 2.45268 0
M  V30 2872 C 262.239 -4.92688 3.18552 0
M  V30 2873 C 264.591 -5.13403 3.69595 0
M  V30 2874 C 263.255 -5.29379 4.06589 0
M  V30 2875 H 262.525 -0.736606 0.0805743 0
M  V30 2876 H 265.172 -1.69598 0.889319 0
M  V30 2877 H 263.477 -3.8818 -0.531391 0
M  V30 2878 H 265.174 -4.00678 -0.160547 0
M  V30 2879 H 261.764 -4.09336 1.2705 0
M  V30 2880 H 265.948 -4.45817 2.18084 0
M  V30 2881 H 261.204 -5.03242 3.47214 0
M  V30 2882 H 265.378 -5.41084 4.38407 0
M  V30 2883 H 263.005 -5.69537 5.03519 0
M  V30 2884 N 264.58 -0.43555 -1.51462 0
M  V30 2885 C 265.991 0.0279871 -1.86679 0
M  V30 2886 C 266.342 1.42104 -1.35281 0
M  V30 2887 O 265.467 2.04667 -0.702878 0
M  V30 2888 C 266.062 0.0575626 -3.38751 0
M  V30 2889 C 264.621 0.465507 -3.7351 0
M  V30 2890 C 263.768 -0.342996 -2.75171 0
M  V30 2891 H 266.719 -0.651473 -1.44712 0
M  V30 2892 H 266.74 0.867421 -3.70481 0
M  V30 2893 H 266.252 -0.956448 -3.7613 0
M  V30 2894 H 264.353 1.48519 -3.41721 0
M  V30 2895 H 264.466 0.191546 -4.78717 0
M  V30 2896 H 262.83 0.198442 -2.53926 0
M  V30 2897 H 263.613 -1.35585 -3.15391 0
M  V30 2898 N 266.058 1.56714 -0.166846 0
M  V30 2899 C 266.991 2.13577 0.80375 0
M  V30 2900 C 267.969 1.06464 1.22899 0
M  V30 2901 O 269.153 1.34413 1.32157 0
M  V30 2902 C 266.28 2.67168 2.0818 0
M  V30 2903 C 265.326 3.86612 1.80093 0
M  V30 2904 S 266.159 5.26565 0.97416 0
M  V30 2905 C 267.315 5.83558 2.26297 0
M  V30 2906 H 267.548 2.9557 0.320267 0
M  V30 2907 H 265.081 1.54326 0.0477555 0
M  V30 2908 H 267.039 2.98692 2.8159 0
M  V30 2909 H 265.7 1.85269 2.53642 0
M  V30 2910 H 264.893 4.22422 2.7491 0
M  V30 2911 H 264.495 3.55951 1.14781 0
M  V30 2912 H 266.787 5.962 3.21795 0
M  V30 2913 H 267.73 6.80731 1.94962 0
M  V30 2914 H 268.138 5.11944 2.37853 0
M  V30 2915 N 267.536 -0.106894 1.57237 0
M  V30 2916 C 268.813 -0.843526 1.76477 0
M  V30 2917 C 269.193 -1.97499 0.745464 0
M  V30 2918 O 268.541 -2.27357 -0.228306 0
M  V30 2919 C 268.751 -1.34903 3.21873 0
M  V30 2920 C 270.099 -1.79654 3.8472 0
M  V30 2921 O 271.123 -1.44554 3.2555 0
M  V30 2922 O 269.982 -2.44515 4.88748 0
M  V30 2923 H 267.076 -0.401468 0.723016 0
M  V30 2924 H 269.622 -0.0896927 1.69463 0
M  V30 2925 H 268.394 -0.53781 3.87586 0
M  V30 2926 H 268.017 -2.16522 3.33473 0
M  V30 2927 N 269.014 -1.53014 -0.377408 0
M  V30 2928 C 270.262 -1.6829 -1.11906 0
M  V30 2929 C 270.583 -0.431206 -1.90173 0
M  V30 2930 O 269.853 0.554595 -1.87886 0
M  V30 2931 H 268.433 -0.620371 -0.416112 0
M  V30 2932 H 271.095 -1.90167 -0.426893 0
M  V30 2933 H 270.191 -2.53862 -1.8155 0
M  V30 2934 N 270.492 0.636531 -1.44174 0
M  V30 2935 C 271.442 1.74233 -1.47061 0
M  V30 2936 C 272.426 1.57331 -0.337034 0
M  V30 2937 O 273.618 1.67159 -0.581973 0
M  V30 2938 C 270.747 3.12897 -1.41246 0
M  V30 2939 C 269.833 3.35288 -2.59698 0
M  V30 2940 N 270.224 3.2807 -3.84972 0
M  V30 2941 C 268.522 3.66065 -2.54778 0
M  V30 2942 C 269.223 3.51001 -4.63867 0
M  V30 2943 N 268.199 3.73616 -3.94857 0
M  V30 2944 H 272.001 1.67103 -2.41773 0
M  V30 2945 H 269.515 0.838806 -1.3906 0
M  V30 2946 H 271.512 3.92189 -1.41398 0
M  V30 2947 H 270.172 3.21197 -0.47569 0
M  V30 2948 H 271.183 3.07109 -4.17019 0
M  V30 2949 H 267.86 3.81379 -1.6987 0
M  V30 2950 H 269.25 3.51059 -5.72894 0
M  V30 2951 N 271.97 1.30982 0.876444 0
M  V30 2952 C 272.933 1.18054 1.96459 0
M  V30 2953 C 273.933 0.109399 1.60427 0
M  V30 2954 O 275.123 0.358173 1.70478 0
M  V30 2955 C 272.255 0.810616 3.31122 0
M  V30 2956 H 273.448 2.14735 2.09354 0
M  V30 2957 H 271.001 1.145 1.06392 0
M  V30 2958 H 271.736 -0.155322 3.23928 0
M  V30 2959 H 271.521 1.58481 3.58645 0
M  V30 2960 H 273.011 0.743876 4.10921 0
M  V30 2961 N 273.449 -1.08991 1.13837 0
M  V30 2962 C 274.689 -1.82867 0.913183 0
M  V30 2963 C 275.053 -1.83936 -0.550604 0
M  V30 2964 O 276.254 -2.53515 -0.893515 0
M  V30 2965 C 274.525 -3.24843 1.49036 0
M  V30 2966 S 276.084 -4.15669 1.40588 0
M  V30 2967 H 272.902 -0.630278 0.329046 0
M  V30 2968 H 275.504 -1.31049 1.45073 0
M  V30 2969 H 274.208 -3.21644 2.54899 0
M  V30 2970 H 273.739 -3.81734 0.950947 0
M  V30 2971 H 275.754 -4.94686 0.387353 0
M  V30 2972 N 274.927 -0.932562 -1.27047 0
M  V30 2973 C 276.338 -0.619451 -1.76124 0
M  V30 2974 C 276.689 0.865397 -1.76083 0
M  V30 2975 O 275.814 1.67722 -1.36742 0
M  V30 2976 C 276.409 -1.11771 -3.19832 0
M  V30 2977 C 274.968 -0.855174 -3.66557 0
M  V30 2978 C 274.115 -1.27362 -2.46321 0
M  V30 2979 H 277.066 -1.11181 -1.13245 0
M  V30 2980 H 277.087 -0.46759 -3.77616 0
M  V30 2981 H 276.599 -2.19842 -3.1983 0
M  V30 2982 H 274.7 0.211524 -3.71999 0
M  V30 2983 H 274.813 -1.47613 -4.55793 0
M  V30 2984 H 273.177 -0.692119 -2.45116 0
M  V30 2985 H 273.96 -2.36307 -2.49025 0
M  V30 2986 N 276.405 1.4127 -0.698611 0
M  V30 2987 C 277.335 2.33447 -0.049629 0
M  V30 2988 C 278.316 1.51982 0.763898 0
M  V30 2989 O 279.501 1.80509 0.716257 0
M  V30 2990 C 276.631 3.35828 0.885267 0
M  V30 2991 C 275.585 4.27627 0.178613 0
M  V30 2992 C 274.911 5.20406 1.22807 0
M  V30 2993 C 276.211 5.13459 -0.956933 0
M  V30 2994 H 277.905 2.87966 -0.81951 0
M  V30 2995 H 275.451 1.38461 -0.395538 0
M  V30 2996 H 277.404 3.9924 1.34854 0
M  V30 2997 H 276.128 2.79666 1.68685 0
M  V30 2998 H 274.787 3.65643 -0.26466 0
M  V30 2999 H 274.435 4.60558 2.02226 0
M  V30 3000 H 274.135 5.82661 0.760239 0
M  V30 3001 H 275.659 5.86695 1.69179 0
M  V30 3002 H 277.073 5.70421 -0.573805 0
M  V30 3003 H 275.47 5.8467 -1.35205 0
M  V30 3004 H 276.54 4.50443 -1.79524 0
M  V30 3005 N 277.883 0.443576 1.51229 0
M  V30 3006 C 278.83 -0.364716 2.279 0
M  V30 3007 C 279.8 -1.0114 1.31757 0
M  V30 3008 O 280.985 -1.02912 1.60667 0
M  V30 3009 C 278.125 -1.45644 3.12861 0
M  V30 3010 C 277.238 -0.827269 4.24005 0
M  V30 3011 C 276.373 -1.89456 4.96266 0
M  V30 3012 C 275.412 -1.24416 5.99322 0
M  V30 3013 N 274.549 -2.25309 6.64966 0
M  V30 3014 H 279.389 0.295464 2.96532 0
M  V30 3015 H 276.926 0.157554 1.46254 0
M  V30 3016 H 278.884 -2.10076 3.6045 0
M  V30 3017 H 277.514 -2.08616 2.46331 0
M  V30 3018 H 276.566 -0.0710839 3.80334 0
M  V30 3019 H 277.878 -0.312481 4.9782 0
M  V30 3020 H 277.032 -2.61535 5.47434 0
M  V30 3021 H 275.771 -2.4431 4.22095 0
M  V30 3022 H 274.776 -0.508868 5.4744 0
M  V30 3023 H 276.001 -0.702882 6.75453 0
M  V30 3024 H 273.947 -2.79231 5.93604 0
M  V30 3025 H 273.864 -1.78739 7.34567 0
M  V30 3026 H 275.132 -2.96853 7.20763 0
M  V30 3027 N 279.361 -1.56624 0.175154 0
M  V30 3028 C 280.608 -1.96999 -0.468811 0
M  V30 3029 C 280.936 -1.06129 -1.62994 0
M  V30 3030 O 280.191 -0.0961771 -1.95464 0
M  V30 3031 C 280.49 -3.43419 -0.989864 0
M  V30 3032 C 280.156 -4.50866 0.0557687 0
M  V30 3033 C 278.818 -4.79975 0.343134 0
M  V30 3034 C 281.17 -5.15551 0.765308 0
M  V30 3035 C 278.498 -5.71066 1.34536 0
M  V30 3036 C 280.85 -6.07724 1.75654 0
M  V30 3037 C 279.514 -6.35199 2.05132 0
M  V30 3038 H 278.784 -0.720869 -0.17155 0
M  V30 3039 H 281.431 -1.89616 0.267924 0
M  V30 3040 H 279.736 -3.47772 -1.80449 0
M  V30 3041 H 281.433 -3.72002 -1.49719 0
M  V30 3042 H 278.023 -4.28229 -0.178381 0
M  V30 3043 H 282.207 -4.9317 0.556513 0
M  V30 3044 H 277.463 -5.90635 1.57988 0
M  V30 3045 H 281.637 -6.56912 2.31169 0
M  V30 3046 H 279.264 -7.05584 2.8294 0
M  V30 3047 N 280.839 0.0985539 -1.57292 0
M  V30 3048 C 282.087 0.801092 -1.85545 0
M  V30 3049 C 282.408 1.79438 -0.763353 0
M  V30 3050 O 281.678 1.94763 0.21073 0
M  V30 3051 H 280.258 0.29884 -0.684619 0
M  V30 3052 H 282.92 0.0810064 -1.94732 0
M  V30 3053 H 282.016 1.3338 -2.82163 0
M  V30 3054 N 282.317 1.53212 0.369288 0
M  V30 3055 C 283.542 1.73423 1.1375 0
M  V30 3056 C 283.967 0.460404 1.82378 0
M  V30 3057 O 283.325 -0.585298 1.71592 0
M  V30 3058 C 283.373 2.89769 2.1463 0
M  V30 3059 O 282.477 2.58119 3.21634 0
M  V30 3060 H 281.818 0.576061 0.330227 0
M  V30 3061 H 284.348 2.00083 0.427547 0
M  V30 3062 H 284.358 3.15829 2.58294 0
M  V30 3063 H 283.033 3.8217 1.64071 0
M  V30 3064 H 281.61 2.42864 2.82969 0
M  V30 3065 N 283.795 -0.628877 1.44509 0
M  V30 3066 C 285.025 -1.41349 1.50678 0
M  V30 3067 C 285.433 -1.88745 0.131075 0
M  V30 3068 O 284.776 -1.61592 -0.87371 0
M  V30 3069 C 284.838 -2.66608 2.41165 0
M  V30 3070 C 284.502 -2.40993 3.88293 0
M  V30 3071 C 285.499 -2.0268 4.78766 0
M  V30 3072 C 283.184 -2.54563 4.33016 0
M  V30 3073 C 285.178 -1.78269 6.11963 0
M  V30 3074 C 282.865 -2.29766 5.6626 0
M  V30 3075 C 283.863 -1.91678 6.55552 0
M  V30 3076 O 283.551 -1.67158 7.86329 0
M  V30 3077 H 283.283 -0.439851 0.51333 0
M  V30 3078 H 285.837 -0.776084 1.90174 0
M  V30 3079 H 284.067 -3.32994 1.96601 0
M  V30 3080 H 285.756 -3.28615 2.38259 0
M  V30 3081 H 286.522 -1.91751 4.45485 0
M  V30 3082 H 282.401 -2.83179 3.63773 0
M  V30 3083 H 285.945 -1.48465 6.81619 0
M  V30 3084 H 281.842 -2.40306 5.99102 0
M  V30 3085 H 282.61 -1.81386 7.98149 0
M  V30 3086 N 285.273 -1.31445 -0.869486 0
M  V30 3087 C 286.236 -1.19094 -1.9583 0
M  V30 3088 C 287.236 -0.117906 -1.60367 0
M  V30 3089 O 288.426 -0.367208 -1.70286 0
M  V30 3090 C 285.558 -0.828165 -3.30688 0
M  V30 3091 H 286.751 -2.15842 -2.08212 0
M  V30 3092 H 284.304 -1.15063 -1.05784 0
M  V30 3093 H 285.039 0.138142 -3.24006 0
M  V30 3094 H 284.824 -1.6038 -3.578 0
M  V30 3095 H 286.314 -0.765658 -4.10521 0
M  V30 3096 N 286.751 1.08385 -1.14413 0
M  V30 3097 C 287.981 1.8425 -0.934644 0
M  V30 3098 C 288.389 1.81907 0.520234 0
M  V30 3099 O 287.732 1.22126 1.37226 0
M  V30 3100 C 287.794 3.32853 -1.35828 0
M  V30 3101 C 287.458 3.5893 -2.82875 0
M  V30 3102 C 288.455 3.53756 -3.80989 0
M  V30 3103 C 286.14 3.86934 -3.20293 0
M  V30 3104 C 288.134 3.76216 -5.14529 0
M  V30 3105 C 285.821 4.09047 -4.54008 0
M  V30 3106 C 286.819 4.03682 -5.50936 0
M  V30 3107 O 286.507 4.25214 -6.82238 0
M  V30 3108 H 286.239 0.588502 -0.332628 0
M  V30 3109 H 288.793 1.37792 -1.52324 0
M  V30 3110 H 287.023 3.8007 -0.713019 0
M  V30 3111 H 288.712 3.90154 -1.11957 0
M  V30 3112 H 289.478 3.32135 -3.53428 0
M  V30 3113 H 285.357 3.9023 -2.45442 0
M  V30 3114 H 288.901 3.71943 -5.90173 0
M  V30 3115 H 284.798 4.30151 -4.8129 0
M  V30 3116 H 285.566 4.42619 -6.88499 0
M  V30 3117 N 288.23 0.939286 1.26551 0
M  V30 3118 C 289.641 0.628782 1.75793 0
M  V30 3119 C 289.992 -0.856046 1.7654 0
M  V30 3120 O 289.117 -1.66994 1.3763 0
M  V30 3121 C 289.712 1.13465 3.19235 0
M  V30 3122 C 288.271 0.874601 3.66098 0
M  V30 3123 C 287.418 1.28667 2.45642 0
M  V30 3124 H 290.369 1.1178 1.12654 0
M  V30 3125 H 290.39 0.487609 3.77363 0
M  V30 3126 H 289.902 2.21535 3.1866 0
M  V30 3127 H 288.003 -0.191793 3.72106 0
M  V30 3128 H 288.116 1.50028 4.55004 0
M  V30 3129 H 286.48 0.705109 2.44745 0
M  V30 3130 H 287.263 2.37625 2.47769 0
M  V30 3131 N 289.708 -1.40897 0.706093 0
M  V30 3132 C 290.655 -2.30751 0.0474474 0
M  V30 3133 C 291.625 -1.47678 -0.76029 0
M  V30 3134 O 292.81 -1.76441 -0.726177 0
M  V30 3135 C 289.95 -3.33815 -0.875309 0
M  V30 3136 C 289.063 -4.31961 -0.0580623 0
M  V30 3137 C 288.198 -5.22093 -0.979425 0
M  V30 3138 C 287.237 -6.11902 -0.155706 0
M  V30 3139 N 286.374 -6.94482 -1.03144 0
M  V30 3140 H 291.214 -2.86513 0.819413 0
M  V30 3141 H 288.751 -1.41102 0.415783 0
M  V30 3142 H 290.709 -3.92129 -1.42446 0
M  V30 3143 H 289.339 -2.79579 -1.61356 0
M  V30 3144 H 288.391 -3.75507 0.608147 0
M  V30 3145 H 289.703 -4.95415 0.580082 0
M  V30 3146 H 288.857 -5.85292 -1.59744 0
M  V30 3147 H 287.596 -4.5889 -1.65141 0
M  V30 3148 H 286.601 -5.47742 0.475309 0
M  V30 3149 H 287.826 -6.77162 0.512635 0
M  V30 3150 H 285.772 -6.33877 -1.68924 0
M  V30 3151 H 285.689 -7.54665 -0.449108 0
M  V30 3152 H 286.957 -7.6214 -1.63593 0
M  V30 3153 N 291.186 -0.45159 -1.50991 0
M  V30 3154 C 292.411 0.110667 -2.07105 0
M  V30 3155 C 292.836 1.3446 -1.31538 0
M  V30 3156 O 292.194 1.77743 -0.357365 0
M  V30 3157 C 292.242 0.397238 -3.58405 0
M  V30 3158 O 291.346 1.48124 -3.84881 0
M  V30 3159 H 290.687 -0.00439271 -0.663985 0
M  V30 3160 H 293.217 -0.637026 -1.9443 0
M  V30 3161 H 293.227 0.64351 -4.02893 0
M  V30 3162 H 291.902 -0.504553 -4.12828 0
M  V30 3163 H 290.479 1.22381 -3.52246 0
M  V30 3164 N 292.664 1.56529 -0.183458 0
M  V30 3165 C 293.574 2.22144 0.754272 0
M  V30 3166 C 294.59 1.21684 1.24374 0
M  V30 3167 O 295.766 1.54385 1.29333 0
M  V30 3168 C 292.831 2.85884 1.96141 0
M  V30 3169 C 291.892 4.01579 1.51765 0
M  V30 3170 C 291.125 4.6227 2.66725 0
M  V30 3171 O 291.348 4.21865 3.83909 0
M  V30 3172 O 290.282 5.51936 2.40104 0
M  V30 3173 H 294.108 3.02861 0.225527 0
M  V30 3174 H 291.693 1.49331 0.0453032 0
M  V30 3175 H 293.575 3.26253 2.66715 0
M  V30 3176 H 292.25 2.08154 2.47899 0
M  V30 3177 H 291.157 3.65856 0.781049 0
M  V30 3178 H 292.49 4.80938 1.04686 0
M  V30 3179 N 294.142 -0.090211 1.57342 0
M  V30 3180 C 295.075 -1.14035 1.97664 0
M  V30 3181 C 296.053 -1.38576 0.850616 0
M  V30 3182 O 297.237 -1.52255 1.11134 0
M  V30 3183 C 294.364 -2.48854 2.2976 0
M  V30 3184 C 293.41 -2.40564 3.52181 0
M  V30 3185 S 294.243 -1.81745 5.03715 0
M  V30 3186 C 295.399 -3.18178 5.38993 0
M  V30 3187 H 295.632 -0.796636 2.86428 0
M  V30 3188 H 293.165 -0.298072 1.51496 0
M  V30 3189 H 295.123 -3.26413 2.48927 0
M  V30 3190 H 293.784 -2.80393 1.41558 0
M  V30 3191 H 292.977 -3.39942 3.72096 0
M  V30 3192 H 292.579 -1.71135 3.32549 0
M  V30 3193 H 294.871 -4.14461 5.35937 0
M  V30 3194 H 295.814 -3.03062 6.39968 0
M  V30 3195 H 296.222 -3.17935 4.66452 0
M  V30 3196 N 295.62 -1.53406 -0.361157 0
M  V30 3197 C 296.869 -1.69022 -1.10066 0
M  V30 3198 C 297.182 -0.450838 -1.90333 0
M  V30 3199 O 298.388 -0.487617 -2.67085 0
M  V30 3200 C 296.844 -2.98812 -2.00598 0
M  V30 3201 C 296.452 -4.30027 -1.25621 0
M  V30 3202 C 298.196 -3.23795 -2.74513 0
M  V30 3203 C 296.103 -5.50903 -2.1508 0
M  V30 3204 H 295.033 -0.629776 -0.414606 0
M  V30 3205 H 297.684 -1.79907 -0.361348 0
M  V30 3206 H 296.066 -2.8174 -2.78278 0
M  V30 3207 H 297.24 -4.57745 -0.529739 0
M  V30 3208 H 295.555 -4.11522 -0.635496 0
M  V30 3209 H 298.152 -4.11289 -3.41681 0
M  V30 3210 H 298.495 -2.40045 -3.40123 0
M  V30 3211 H 299.028 -3.41561 -2.03914 0
M  V30 3212 H 295.767 -6.37143 -1.54041 0
M  V30 3213 H 295.287 -5.27459 -2.85565 0
M  V30 3214 H 296.966 -5.85865 -2.74538 0
M  V30 3215 N 297.098 0.621204 -1.44841 0
M  V30 3216 C 298.328 1.40548 -1.51426 0
M  V30 3217 C 298.736 1.88673 -0.141083 0
M  V30 3218 O 298.079 1.62053 0.865128 0
M  V30 3219 C 298.141 2.65325 -2.42576 0
M  V30 3220 C 297.805 2.3893 -3.89566 0
M  V30 3221 C 298.802 2.00138 -4.79834 0
M  V30 3222 C 296.487 2.52263 -4.3436 0
M  V30 3223 C 298.481 1.75021 -6.129 0
M  V30 3224 C 296.168 2.2676 -5.67471 0
M  V30 3225 C 297.166 1.88199 -6.56559 0
M  V30 3226 O 296.854 1.62986 -7.87204 0
M  V30 3227 H 296.586 0.437122 -0.515655 0
M  V30 3228 H 299.14 0.765987 -1.90583 0
M  V30 3229 H 297.37 3.31947 -1.98364 0
M  V30 3230 H 299.059 3.27347 -2.39998 0
M  V30 3231 H 299.825 1.89386 -4.46495 0
M  V30 3232 H 295.704 2.81246 -3.65269 0
M  V30 3233 H 299.248 1.44848 -6.82396 0
M  V30 3234 H 295.145 2.37125 -6.00368 0
M  V30 3235 H 295.913 1.7715 -7.991 0
M  V30 3236 N 298.576 1.31904 0.862503 0
M  V30 3237 C 299.804 1.24998 1.64873 0
M  V30 3238 C 300.219 -0.183425 1.87907 0
M  V30 3239 O 299.576 -1.11794 1.44251 0
M  V30 3240 C 299.627 1.99829 3.01248 0
M  V30 3241 O 299.348 3.37575 2.79239 0
M  V30 3242 C 300.849 1.99852 3.95694 0
M  V30 3243 H 298.069 0.431599 0.513773 0
M  V30 3244 H 300.613 1.73901 1.07604 0
M  V30 3245 H 298.768 1.54668 3.55185 0
M  V30 3246 H 299.182 3.75776 3.65914 0
M  V30 3247 H 300.656 2.56709 4.88676 0
M  V30 3248 H 301.133 0.982852 4.28062 0
M  V30 3249 H 301.739 2.44926 3.47694 0
M  V30 3250 N 300.054 -1.07777 1.14986 0
M  V30 3251 C 301.3 -1.80719 0.93339 0
M  V30 3252 C 301.655 -1.8484 -0.534019 0
M  V30 3253 O 300.948 -1.31795 -1.3907 0
M  V30 3254 C 301.142 -3.25495 1.47608 0
M  V30 3255 C 300.971 -3.3548 2.99472 0
M  V30 3256 C 299.741 -3.46293 3.6798 0
M  V30 3257 C 301.939 -3.26596 3.97291 0
M  V30 3258 N 299.921 -3.45136 5.07695 0
M  V30 3259 C 301.292 -3.32506 5.23297 0
M  V30 3260 C 303.347 -3.10376 3.89321 0
M  V30 3261 C 302.05 -3.23866 6.42264 0
M  V30 3262 C 304.076 -3.03069 5.07842 0
M  V30 3263 C 303.438 -3.09587 6.32721 0
M  V30 3264 H 299.537 -0.674814 0.395158 0
M  V30 3265 H 302.121 -1.28681 1.46114 0
M  V30 3266 H 300.292 -3.75963 0.975022 0
M  V30 3267 H 302.024 -3.86535 1.19887 0
M  V30 3268 H 298.779 -3.50456 3.18555 0
M  V30 3269 H 299.203 -3.48097 5.80653 0
M  V30 3270 H 303.845 -3.04194 2.93642 0
M  V30 3271 H 301.563 -3.28807 7.38181 0
M  V30 3272 H 305.149 -2.91629 5.03432 0
M  V30 3273 H 304.029 -3.0397 7.22891 0
M  V30 3274 N 301.532 -0.945985 -1.26051 0
M  V30 3275 C 302.76 -0.613025 -1.9761 0
M  V30 3276 C 303.175 0.813035 -1.70397 0
M  V30 3277 O 302.532 1.54274 -0.974979 0
M  V30 3278 C 302.583 -0.85159 -3.51326 0
M  V30 3279 O 302.304 -2.22157 -3.77595 0
M  V30 3280 C 303.805 -0.529831 -4.40122 0
M  V30 3281 H 301.025 -0.230593 -0.630133 0
M  V30 3282 H 303.569 -1.268 -1.60443 0
M  V30 3283 H 301.724 -0.243151 -3.86636 0
M  V30 3284 H 302.138 -2.2852 -4.721 0
M  V30 3285 H 303.612 -0.747348 -5.46917 0
M  V30 3286 H 304.089 0.535341 -4.35925 0
M  V30 3287 H 304.695 -1.11721 -4.10364 0
M  V30 3288 N 303.011 1.40521 -0.713556 0
M  V30 3289 C 303.958 2.30723 -0.059684 0
M  V30 3290 C 304.928 1.48079 0.752448 0
M  V30 3291 O 306.113 1.76823 0.71681 0
M  V30 3292 C 303.253 3.34274 0.857594 0
M  V30 3293 C 302.366 4.31986 0.0351536 0
M  V30 3294 C 301.501 5.22605 0.951724 0
M  V30 3295 C 300.54 6.11976 0.123253 0
M  V30 3296 N 299.677 6.9502 0.99459 0
M  V30 3297 H 304.517 2.86074 -0.834596 0
M  V30 3298 H 302.054 1.40879 -0.42326 0
M  V30 3299 H 304.012 3.92879 1.40364 0
M  V30 3300 H 302.642 2.8043 1.59871 0
M  V30 3301 H 301.694 3.7518 -0.628052 0
M  V30 3302 H 303.006 4.95101 -0.606347 0
M  V30 3303 H 302.16 5.86131 1.56638 0
M  V30 3304 H 300.899 4.59759 1.62705 0
M  V30 3305 H 299.904 5.47482 -0.50435 0
M  V30 3306 H 301.129 6.76881 -0.548539 0
M  V30 3307 H 299.075 6.34764 1.6556 0
M  V30 3308 H 298.992 7.54892 0.40908 0
M  V30 3309 H 300.26 7.62997 1.59549 0
M  V30 3310 N 304.489 0.459591 1.5075 0
M  V30 3311 C 305.737 -0.0991532 2.01857 0
M  V30 3312 C 306.058 -1.41247 1.34441 0
M  V30 3313 O 305.328 -1.89775 0.486022 0
M  V30 3314 H 303.908 -0.039633 0.745948 0
M  V30 3315 H 306.57 0.607387 1.85194 0
M  V30 3316 H 305.666 -0.258998 3.11023 0
M  V30 3317 N 305.967 -1.56429 0.191757 0
M  V30 3318 C 307.378 -1.83912 -0.321428 0
M  V30 3319 C 307.729 -1.11231 -1.61623 0
M  V30 3320 O 306.854 -0.37202 -2.13178 0
M  V30 3321 C 307.449 -3.33624 -0.589961 0
M  V30 3322 C 306.008 -3.6153 -1.04753 0
M  V30 3323 C 305.155 -2.7714 -0.0943327 0
M  V30 3324 H 308.106 -1.53161 0.415612 0
M  V30 3325 H 308.127 -3.52213 -1.43966 0
M  V30 3326 H 307.639 -3.86495 0.352588 0
M  V30 3327 H 305.74 -3.14089 -2.00447 0
M  V30 3328 H 305.853 -4.69737 -0.942549 0
M  V30 3329 H 304.217 -2.47638 -0.595589 0
M  V30 3330 H 305 -3.32799 0.842601 0
M  V30 3331 N 307.445 0.0818655 -1.57387 0
M  V30 3332 C 308.355 1.11642 -2.06333 0
M  V30 3333 C 309.371 1.43033 -0.99083 0
M  V30 3334 O 310.547 1.53411 -1.30488 0
M  V30 3335 C 307.612 2.41342 -2.48907 0
M  V30 3336 C 306.673 2.17014 -3.7041 0
M  V30 3337 C 305.906 3.4053 -4.10944 0
M  V30 3338 O 306.129 4.4927 -3.51444 0
M  V30 3339 O 305.063 3.29336 -5.03807 0
M  V30 3340 H 308.889 0.730657 -2.9478 0
M  V30 3341 H 306.474 0.295301 -1.46452 0
M  V30 3342 H 308.356 3.17691 -2.76858 0
M  V30 3343 H 307.031 2.79319 -1.63593 0
M  V30 3344 H 305.938 1.38403 -3.47556 0
M  V30 3345 H 307.271 1.83923 -4.56545 0
M  V30 3346 N 308.923 1.53595 0.353017 0
M  V30 3347 C 309.87 1.80919 1.43308 0
M  V30 3348 C 310.84 0.654288 1.5267 0
M  V30 3349 O 312.025 0.897759 1.6836 0
M  V30 3350 C 309.165 2.01605 2.80089 0
M  V30 3351 C 308.278 3.29321 2.79593 0
M  V30 3352 C 307.413 3.40125 4.0803 0
M  V30 3353 C 306.452 4.61826 4.01725 0
M  V30 3354 N 305.589 4.69716 5.21834 0
M  V30 3355 H 310.429 2.73074 1.19308 0
M  V30 3356 H 307.966 1.35263 0.578131 0
M  V30 3357 H 309.924 2.11586 3.59565 0
M  V30 3358 H 308.554 1.12772 3.0246 0
M  V30 3359 H 307.606 3.28229 1.92276 0
M  V30 3360 H 308.918 4.18884 2.70809 0
M  V30 3361 H 308.072 3.49488 4.95927 0
M  V30 3362 H 306.811 2.48601 4.19582 0
M  V30 3363 H 305.816 4.52552 3.12213 0
M  V30 3364 H 307.041 5.54705 3.91764 0
M  V30 3365 H 304.987 3.81097 5.33948 0
M  V30 3366 H 304.904 5.53202 5.1527 0
M  V30 3367 H 306.172 4.83376 6.11529 0
M  V30 3368 N 310.401 -0.613514 1.45168 0
M  V30 3369 C 311.626 -1.40437 1.52618 0
M  V30 3370 C 312.051 -1.87438 0.157707 0
M  V30 3371 O 311.409 -1.59791 -0.856537 0
M  V30 3372 C 311.457 -2.58894 2.51011 0
M  V30 3373 O 310.561 -3.59326 2.02382 0
M  V30 3374 H 309.902 -0.419506 0.514695 0
M  V30 3375 H 312.432 -0.747215 1.90467 0
M  V30 3376 H 312.442 -3.06214 2.69624 0
M  V30 3377 H 311.117 -2.24032 3.50403 0
M  V30 3378 H 309.694 -3.18695 1.93618 0
M  V30 3379 N 311.879 -1.3236 -0.855495 0
M  V30 3380 C 313.125 -1.23054 -1.612 0
M  V30 3381 C 313.458 0.207404 -1.93089 0
M  V30 3382 O 312.733 1.14432 -1.57275 0
M  V30 3383 C 313.016 -2.08937 -2.93287 0
M  V30 3384 C 312.869 -3.61105 -2.68185 0
M  V30 3385 C 314.188 -1.94986 -3.94549 0
M  V30 3386 H 311.307 -0.448364 -0.584926 0
M  V30 3387 H 313.949 -1.62297 -0.987917 0
M  V30 3388 H 312.099 -1.75599 -3.46551 0
M  V30 3389 H 313.771 -4.04652 -2.21483 0
M  V30 3390 H 312.014 -3.83813 -2.02164 0
M  V30 3391 H 312.685 -4.16522 -3.62234 0
M  V30 3392 H 315.161 -2.24189 -3.5054 0
M  V30 3393 H 314.037 -2.57356 -4.84829 0
M  V30 3394 H 314.298 -0.917263 -4.3248 0
M  V30 3395 N 313.357 1.07166 -1.15556 0
M  V30 3396 C 314.267 2.17947 -0.868116 0
M  V30 3397 C 315.283 1.73297 0.156297 0
M  V30 3398 O 316.459 2.01392 -0.0182327 0
M  V30 3399 C 313.524 3.44789 -0.36355 0
M  V30 3400 C 312.585 4.03996 -1.45209 0
M  V30 3401 C 311.818 5.24783 -0.971508 0
M  V30 3402 O 312.041 5.70109 0.182194 0
M  V30 3403 O 310.975 5.75715 -1.75603 0
M  V30 3404 H 314.801 2.4503 -1.79427 0
M  V30 3405 H 312.386 1.16539 -0.934824 0
M  V30 3406 H 314.268 4.21307 -0.0887113 0
M  V30 3407 H 312.943 3.19253 0.534708 0
M  V30 3408 H 311.85 3.29009 -1.78056 0
M  V30 3409 H 313.183 4.33808 -2.32533 0
M  V30 3410 N 314.835 0.952656 1.25548 0
M  V30 3411 C 316.081 0.607272 1.93494 0
M  V30 3412 C 316.414 -0.853245 1.74452 0
M  V30 3413 O 315.689 -1.61194 1.08843 0
M  V30 3414 C 315.972 0.96435 3.46947 0
M  V30 3415 C 315.825 2.48045 3.75225 0
M  V30 3416 C 317.144 0.487987 4.37386 0
M  V30 3417 H 314.263 0.222096 0.702739 0
M  V30 3418 H 316.905 1.18895 1.48203 0
M  V30 3419 H 315.055 0.469361 3.85654 0
M  V30 3420 H 316.727 3.04905 3.46166 0
M  V30 3421 H 314.97 2.919 3.209 0
M  V30 3422 H 315.641 2.6808 4.82532 0
M  V30 3423 H 318.117 0.912558 4.0597 0
M  V30 3424 H 316.993 0.766547 5.43521 0
M  V30 3425 H 317.254 -0.612063 4.37843 0
M  V30 3426 N 316.313 -1.40141 0.720998 0
M  V30 3427 C 317.724 -1.83678 0.334553 0
M  V30 3428 C 318.075 -1.6027 -1.13173 0
M  V30 3429 O 317.2 -1.08643 -1.87152 0
M  V30 3430 C 317.795 -3.33437 0.600437 0
M  V30 3431 C 316.354 -3.75447 0.267642 0
M  V30 3432 C 315.501 -2.63296 0.870097 0
M  V30 3433 H 318.452 -1.29331 0.919732 0
M  V30 3434 H 318.473 -3.80269 -0.132517 0
M  V30 3435 H 317.985 -3.50442 1.66768 0
M  V30 3436 H 316.086 -3.64035 -0.794329 0
M  V30 3437 H 316.199 -4.73344 0.74042 0
M  V30 3438 H 314.563 -2.52954 0.297739 0
M  V30 3439 H 315.346 -2.83112 1.94172 0
M  V30 3440 N 317.792 -0.46758 -1.50504 0
M  V30 3441 C 318.739 0.328413 -2.28452 0
M  V30 3442 C 319.709 0.990313 -1.33349 0
M  V30 3443 O 320.894 1.00343 -1.62284 0
M  V30 3444 C 318.034 1.40648 -3.15138 0
M  V30 3445 C 317.147 0.759709 -4.25267 0
M  V30 3446 C 316.282 1.81537 -4.99217 0
M  V30 3447 C 315.321 1.14866 -6.01226 0
M  V30 3448 N 314.458 2.14702 -6.68467 0
M  V30 3449 H 319.298 -0.342603 -2.96024 0
M  V30 3450 H 316.835 -0.180801 -1.45985 0
M  V30 3451 H 318.793 2.04315 -3.63746 0
M  V30 3452 H 317.423 2.04671 -2.49619 0
M  V30 3453 H 316.475 0.0105671 -3.80399 0
M  V30 3454 H 317.787 0.233243 -4.98254 0
M  V30 3455 H 316.941 2.52793 -5.51526 0
M  V30 3456 H 315.68 2.37564 -4.25928 0
M  V30 3457 H 314.685 0.42171 -5.4818 0
M  V30 3458 H 315.91 0.595334 -6.76485 0
M  V30 3459 H 313.856 2.69752 -5.97972 0
M  V30 3460 H 313.773 1.6703 -7.37317 0
M  V30 3461 H 315.041 2.85348 -7.25394 0
M  V30 3462 N 319.27 1.56325 -0.20005 0
M  V30 3463 C 320.18 2.22931 0.730668 0
M  V30 3464 C 321.196 1.22997 1.23076 0
M  V30 3465 O 322.372 1.55748 1.27689 0
M  V30 3466 C 319.437 2.87948 1.93098 0
M  V30 3467 C 318.498 4.03166 1.47497 0
M  V30 3468 C 317.731 4.65073 2.61807 0
M  V30 3469 O 317.954 4.25913 3.79413 0
M  V30 3470 O 316.888 5.54452 2.34237 0
M  V30 3471 H 320.714 3.03084 0.193391 0
M  V30 3472 H 318.299 1.49371 0.0294621 0
M  V30 3473 H 320.181 3.29063 2.6324 0
M  V30 3474 H 318.856 2.10771 2.45677 0
M  V30 3475 H 317.763 3.66664 0.742201 0
M  V30 3476 H 319.096 4.82022 0.995796 0
M  V30 3477 N 320.748 -0.0735177 1.57428 0
M  V30 3478 C 321.973 -0.789787 1.91774 0
M  V30 3479 C 322.398 -1.70413 0.796306 0
M  V30 3480 O 321.756 -1.79555 -0.250961 0
M  V30 3481 C 321.804 -1.5609 3.25067 0
M  V30 3482 O 320.908 -2.67144 3.14178 0
M  V30 3483 H 320.249 -0.215582 0.628029 0
M  V30 3484 H 322.779 -0.0422781 2.04556 0
M  V30 3485 H 322.789 -1.94052 3.58898 0
M  V30 3486 H 321.464 -0.890015 4.06265 0
M  V30 3487 H 320.041 -2.32052 2.91901 0
M  V30 3488 N 322.226 -1.5378 -0.344866 0
M  V30 3489 C 323.451 -1.75211 -1.10977 0
M  V30 3490 C 323.876 -0.48936 -1.81623 0
M  V30 3491 O 323.234 0.557925 -1.72502 0
M  V30 3492 C 323.282 -2.93147 -2.09993 0
M  V30 3493 O 322.386 -2.63203 -3.17487 0
M  V30 3494 H 321.727 -0.581241 -0.321021 0
M  V30 3495 H 324.257 -2.00738 -0.395661 0
M  V30 3496 H 324.267 -3.19898 -2.53237 0
M  V30 3497 H 322.942 -3.84731 -1.5797 0
M  V30 3498 H 321.519 -2.47336 -2.79069 0
M  V30 3499 N 323.704 0.605807 -1.45491 0
M  V30 3500 C 324.929 1.39625 -1.53361 0
M  V30 3501 C 325.354 1.87351 -0.167645 0
M  V30 3502 O 324.712 1.60243 0.848051 0
M  V30 3503 C 324.76 2.57559 -2.5238 0
M  V30 3504 O 323.864 3.58248 -2.04285 0
M  V30 3505 H 323.205 0.416771 -0.516912 0
M  V30 3506 H 325.735 0.737103 -1.90861 0
M  V30 3507 H 325.745 3.0478 -2.71244 0
M  V30 3508 H 324.42 2.22171 -3.51586 0
M  V30 3509 H 322.997 3.17664 -1.95305 0
M  V30 3510 N 325.182 1.32811 0.848464 0
M  V30 3511 C 326.112 1.24882 1.97299 0
M  V30 3512 C 327.093 0.131357 1.69592 0
M  V30 3513 O 328.278 0.319553 1.91553 0
M  V30 3514 C 325.408 0.97746 3.33261 0
M  V30 3515 C 324.362 2.05682 3.75338 0
M  V30 3516 C 323.688 1.63777 5.09 0
M  V30 3517 C 324.988 3.47254 3.90144 0
M  V30 3518 H 326.682 2.18966 2.04191 0
M  V30 3519 H 324.228 1.05413 0.981029 0
M  V30 3520 H 326.181 0.908513 4.1149 0
M  V30 3521 H 324.905 0.000980011 3.266 0
M  V30 3522 H 323.564 2.11603 2.99366 0
M  V30 3523 H 323.212 0.648569 4.98801 0
M  V30 3524 H 322.912 2.36 5.38124 0
M  V30 3525 H 324.436 1.5833 5.89715 0
M  V30 3526 H 325.85 3.43888 4.58709 0
M  V30 3527 H 324.247 4.1788 4.30693 0
M  V30 3528 H 325.317 3.86462 2.92874 0
M  V30 3529 N 326.66 -1.06551 1.16123 0
M  V30 3530 C 327.906 -1.79567 0.94252 0
M  V30 3531 C 328.239 -1.86869 -0.528547 0
M  V30 3532 O 327.514 -1.35838 -1.39206 0
M  V30 3533 C 327.797 -3.24195 1.56747 0
M  V30 3534 C 327.65 -3.24989 3.10969 0
M  V30 3535 C 328.969 -4.21678 1.25998 0
M  V30 3536 H 326.088 -0.651883 0.343828 0
M  V30 3537 H 328.73 -1.2463 1.43413 0
M  V30 3538 H 326.88 -3.71107 1.14942 0
M  V30 3539 H 328.552 -2.86258 3.61737 0
M  V30 3540 H 326.795 -2.63716 3.44436 0
M  V30 3541 H 327.466 -4.27005 3.49815 0
M  V30 3542 H 329.942 -3.83196 1.62174 0
M  V30 3543 H 328.818 -5.21146 1.7233 0
M  V30 3544 H 329.079 -4.4174 0.178367 0
M  V30 3545 N 328.138 -0.959301 -1.25041 0
M  V30 3546 C 329.07 -0.440543 -2.24926 0
M  V30 3547 C 330.083 0.446131 -1.56568 0
M  V30 3548 O 331.272 0.253657 -1.76689 0
M  V30 3549 C 328.372 0.38412 -3.36716 0
M  V30 3550 C 327.545 -0.490658 -4.34639 0
M  V30 3551 C 326.604 0.276587 -5.25473 0
M  V30 3552 O 325.63 -0.326614 -5.68262 0
M  V30 3553 N 326.832 1.56844 -5.5891 0
M  V30 3554 H 329.597 -1.29931 -2.70071 0
M  V30 3555 H 327.158 -0.830181 -1.38995 0
M  V30 3556 H 329.15 0.905228 -3.94446 0
M  V30 3557 H 327.72 1.14377 -2.90924 0
M  V30 3558 H 326.94 -1.19282 -3.7572 0
M  V30 3559 H 328.228 -1.08756 -4.97041 0
M  V30 3560 H 327.626 2.08036 -5.26059 0
M  V30 3561 H 326.183 2.03541 -6.19205 0
M  V30 3562 N 329.616 1.39756 -0.72842 0
M  V30 3563 C 330.846 2.04651 -0.283117 0
M  V30 3564 C 331.254 1.5502 1.08469 0
M  V30 3565 O 330.597 0.707343 1.69536 0
M  V30 3566 C 330.659 3.58947 -0.199309 0
M  V30 3567 C 330.323 4.31525 -1.5045 0
M  V30 3568 C 331.32 4.5861 -2.44894 0
M  V30 3569 C 329.005 4.70195 -1.76698 0
M  V30 3570 C 330.999 5.23366 -3.63822 0
M  V30 3571 C 328.686 5.3468 -2.95906 0
M  V30 3572 C 329.684 5.61198 -3.89289 0
M  V30 3573 O 329.372 6.24347 -5.06404 0
M  V30 3574 H 329.104 0.664777 -0.122666 0
M  V30 3575 H 331.658 1.79913 -0.990987 0
M  V30 3576 H 329.888 3.82556 0.56461 0
M  V30 3577 H 331.577 4.0534 0.213125 0
M  V30 3578 H 332.343 4.29187 -2.25883 0
M  V30 3579 H 328.222 4.48916 -1.04859 0
M  V30 3580 H 331.766 5.4398 -4.36728 0
M  V30 3581 H 327.663 5.63524 -3.14819 0
M  V30 3582 H 328.431 6.42842 -5.06652 0
M  V30 3583 N 331.094 0.475555 1.50254 0
M  V30 3584 C 332.371 -0.139685 1.95101 0
M  V30 3585 C 332.751 -1.56555 1.41611 0
M  V30 3586 O 332.099 -2.19956 0.618993 0
M  V30 3587 C 332.309 -0.0784298 3.48912 0
M  V30 3588 C 333.657 -0.265095 4.23772 0
M  V30 3589 O 334.681 -0.154808 3.55863 0
M  V30 3590 O 333.54 -0.488327 5.44314 0
M  V30 3591 H 330.634 -0.109236 0.819754 0
M  V30 3592 H 333.18 0.536276 1.61004 0
M  V30 3593 H 331.952 0.916918 3.80405 0
M  V30 3594 H 331.575 -0.795655 3.89558 0
M  V30 3595 N 332.573 -1.56217 0.208337 0
M  V30 3596 C 333.503 -2.22694 -0.702116 0
M  V30 3597 C 334.484 -1.19432 -1.2112 0
M  V30 3598 O 335.669 -1.47978 -1.25762 0
M  V30 3599 C 332.799 -2.8966 -1.9161 0
M  V30 3600 C 331.753 -3.9928 -1.5414 0
M  V30 3601 C 331.079 -4.53476 -2.83308 0
M  V30 3602 C 332.379 -5.17012 -0.741339 0
M  V30 3603 H 334.073 -2.99034 -0.147898 0
M  V30 3604 H 331.619 -1.43831 -0.0696951 0
M  V30 3605 H 333.572 -3.34852 -2.55836 0
M  V30 3606 H 332.296 -2.10746 -2.49507 0
M  V30 3607 H 330.955 -3.54799 -0.922668 0
M  V30 3608 H 330.603 -3.71308 -3.39322 0
M  V30 3609 H 330.303 -5.27451 -2.58976 0
M  V30 3610 H 331.827 -5.01378 -3.485 0
M  V30 3611 H 333.241 -5.58667 -1.28699 0
M  V30 3612 H 331.638 -5.97137 -0.595627 0
M  V30 3613 H 332.708 -4.8423 0.254851 0
M  V30 3614 N 334.051 0.0651679 -1.57465 0
M  V30 3615 C 335.3 0.761916 -1.86756 0
M  V30 3616 C 335.613 1.78406 -0.801925 0
M  V30 3617 O 336.819 2.53084 -0.982885 0
M  V30 3618 C 335.275 1.40603 -3.31299 0
M  V30 3619 C 334.883 0.422115 -4.46007 0
M  V30 3620 C 336.627 2.08476 -3.69781 0
M  V30 3621 C 334.534 1.07252 -5.81593 0
M  V30 3622 H 333.464 0.288308 -0.696702 0
M  V30 3623 H 336.115 0.015344 -1.83494 0
M  V30 3624 H 334.497 2.20109 -3.29193 0
M  V30 3625 H 335.671 -0.343613 -4.59517 0
M  V30 3626 H 333.986 -0.152527 -4.16121 0
M  V30 3627 H 336.583 2.57925 -4.68379 0
M  V30 3628 H 336.926 2.88712 -2.99919 0
M  V30 3629 H 337.459 1.35792 -3.73905 0
M  V30 3630 H 334.198 0.310342 -6.54765 0
M  V30 3631 H 333.718 1.80895 -5.71872 0
M  V30 3632 H 335.397 1.59043 -6.27148 0
M  V30 3633 N 335.529 1.53961 0.336706 0
M  V30 3634 C 336.777 1.71197 1.07405 0
M  V30 3635 C 337.098 0.481475 1.88962 0
M  V30 3636 O 336.368 -0.504585 1.8929 0
M  V30 3637 H 334.948 0.631185 0.399517 0
M  V30 3638 H 337.61 1.91232 0.376323 0
M  V30 3639 H 336.706 2.58587 1.74755 0
M  V30 3640 N 337.007 -0.598083 1.45811 0
M  V30 3641 C 337.939 -1.72231 1.51225 0
M  V30 3642 C 338.952 -1.57757 0.402059 0
M  V30 3643 O 340.141 -1.65464 0.669624 0
M  V30 3644 C 337.241 -3.10331 1.3619 0
M  V30 3645 C 336.414 -3.50955 2.61054 0
M  V30 3646 C 335.473 -4.68055 2.40439 0
M  V30 3647 O 334.499 -4.74691 3.14097 0
M  V30 3648 N 335.701 -5.61941 1.45612 0
M  V30 3649 H 338.466 -1.68046 2.48154 0
M  V30 3650 H 336.027 -0.783637 1.41671 0
M  V30 3651 H 338.019 -3.86439 1.20195 0
M  V30 3652 H 336.589 -3.0897 0.475015 0
M  V30 3653 H 335.809 -2.64711 2.92099 0
M  V30 3654 H 337.097 -3.74858 3.44034 0
M  V30 3655 H 336.495 -5.59301 0.848431 0
M  V30 3656 H 335.052 -6.37542 1.35585 0
M  V30 3657 N 338.485 -1.33259 -0.841409 0
M  V30 3658 C 339.713 -1.27605 -1.62864 0
M  V30 3659 C 340.128 0.153507 -1.88175 0
M  V30 3660 O 339.485 1.09485 -1.46011 0
M  V30 3661 C 339.536 -2.04596 -2.98031 0
M  V30 3662 O 339.257 -3.41975 -2.73834 0
M  V30 3663 C 340.758 -2.06122 -3.92465 0
M  V30 3664 H 337.978 -0.439718 -0.506842 0
M  V30 3665 H 340.522 -1.75591 -1.04824 0
M  V30 3666 H 338.677 -1.60299 -3.5268 0
M  V30 3667 H 339.091 -3.81549 -3.59889 0
M  V30 3668 H 340.565 -2.64451 -4.84531 0
M  V30 3669 H 341.042 -1.05083 -4.26444 0
M  V30 3670 H 341.648 -2.50427 -3.43753 0
M  V30 3671 N 339.963 1.05934 -1.16686 0
M  V30 3672 C 341.209 1.79065 -0.95203 0
M  V30 3673 C 341.542 1.87147 0.518629 0
M  V30 3674 O 340.817 1.36574 1.38484 0
M  V30 3675 C 341.1 3.23359 -1.58464 0
M  V30 3676 C 340.953 3.23336 -3.12689 0
M  V30 3677 C 342.272 4.21004 -1.28232 0
M  V30 3678 H 339.391 0.65005 -0.34728 0
M  V30 3679 H 342.033 1.23868 -1.44072 0
M  V30 3680 H 340.183 3.70493 -1.16908 0
M  V30 3681 H 341.855 2.84336 -3.6325 0
M  V30 3682 H 340.098 2.61886 -3.4583 0
M  V30 3683 H 340.769 4.25144 -3.52075 0
M  V30 3684 H 343.245 3.8233 -1.64203 0
M  V30 3685 H 342.121 5.20225 -1.75092 0
M  V30 3686 H 342.382 4.41639 -0.201791 0
M  V30 3687 N 341.441 0.965919 1.2453 0
M  V30 3688 C 342.666 0.643971 1.97149 0
M  V30 3689 C 343.091 -0.779487 1.71189 0
M  V30 3690 O 342.449 -1.5288 0.974553 0
M  V30 3691 C 342.497 0.922557 3.48599 0
M  V30 3692 O 341.601 0.00707672 4.12399 0
M  V30 3693 H 340.942 0.243647 0.617683 0
M  V30 3694 H 343.472 1.29558 1.58353 0
M  V30 3695 H 343.482 0.853373 3.98976 0
M  V30 3696 H 342.157 1.95996 3.66822 0
M  V30 3697 H 340.734 0.12943 3.72675 0
M  V30 3698 N 342.919 -1.39368 0.735821 0
M  V30 3699 C 344.144 -2.05319 0.293052 0
M  V30 3700 C 344.569 -1.55115 -1.064 0
M  V30 3701 O 343.927 -0.695261 -1.67439 0
M  V30 3702 C 343.975 -3.59305 0.305323 0
M  V30 3703 O 343.079 -4.06299 -0.706761 0
M  V30 3704 H 342.42 -0.650529 0.13307 0
M  V30 3705 H 344.95 -1.78386 1.00197 0
M  V30 3706 H 344.96 -4.07724 0.149997 0
M  V30 3707 H 343.635 -3.95207 1.29553 0
M  V30 3708 H 342.212 -3.69292 -0.517504 0
M  V30 3709 N 344.397 -0.483516 -1.5 0
M  V30 3710 C 345.307 0.309172 -2.32554 0
M  V30 3711 C 346.323 0.984159 -1.43493 0
M  V30 3712 O 347.499 0.969399 -1.76535 0
M  V30 3713 C 344.564 1.36979 -3.18493 0
M  V30 3714 C 343.625 0.710095 -4.23387 0
M  V30 3715 C 342.858 1.72018 -5.05218 0
M  V30 3716 O 343.081 2.94813 -4.88305 0
M  V30 3717 O 342.015 1.28515 -5.8802 0
M  V30 3718 H 345.841 -0.366064 -3.01486 0
M  V30 3719 H 343.426 -0.24514 -1.47375 0
M  V30 3720 H 345.308 1.98385 -3.71781 0
M  V30 3721 H 343.983 2.02828 -2.52275 0
M  V30 3722 H 342.89 0.0567539 -3.74057 0
M  V30 3723 H 344.223 0.0943557 -4.9211 0
M  V30 3724 N 345.875 1.56104 -0.216619 0
M  V30 3725 C 347.103 2.02563 0.421413 0
M  V30 3726 C 347.518 1.0965 1.53695 0
M  V30 3727 O 346.875 0.10521 1.82196 0
M  V30 3728 C 346.926 3.48584 0.957665 0
M  V30 3729 O 346.647 4.37953 -0.113389 0
M  V30 3730 C 348.148 4.10664 1.66943 0
M  V30 3731 H 345.368 0.662944 0.103665 0
M  V30 3732 H 347.912 2.01793 -0.331629 0
M  V30 3733 H 346.067 3.49985 1.661 0
M  V30 3734 H 346.481 5.23704 0.288932 0
M  V30 3735 H 347.955 5.14622 1.99671 0
M  V30 3736 H 348.432 3.55373 2.58083 0
M  V30 3737 H 349.038 4.13098 1.01142 0
M  V30 3738 N 347.353 -0.0568162 1.57498 0
M  V30 3739 C 348.602 -0.752001 1.87157 0
M  V30 3740 C 348.915 -1.77978 0.811375 0
M  V30 3741 O 350.121 -2.52559 0.996293 0
M  V30 3742 C 348.577 -1.38844 3.3204 0
M  V30 3743 C 348.185 -0.398456 4.46225 0
M  V30 3744 C 349.929 -2.06512 3.70882 0
M  V30 3745 C 347.836 -1.04166 5.82154 0
M  V30 3746 H 346.766 -0.28461 0.698222 0
M  V30 3747 H 349.417 -0.00561272 1.83499 0
M  V30 3748 H 347.799 -2.1836 3.30356 0
M  V30 3749 H 348.973 0.367977 4.59328 0
M  V30 3750 H 347.288 0.174592 4.16034 0
M  V30 3751 H 349.885 -2.55437 4.6974 0
M  V30 3752 H 350.228 -2.87117 3.01445 0
M  V30 3753 H 350.761 -1.33808 3.7462 0
M  V30 3754 H 347.5 -0.275614 6.5492 0
M  V30 3755 H 347.02 -1.7786 5.72823 0
M  V30 3756 H 348.699 -1.55715 6.27982 0
M  V30 3757 N 348.832 -1.54138 -0.328536 0
M  V30 3758 C 349.779 -1.83176 -1.40411 0
M  V30 3759 C 350.749 -0.678494 -1.5161 0
M  V30 3760 O 351.934 -0.92443 -1.6691 0
M  V30 3761 C 349.074 -2.06035 -2.76846 0
M  V30 3762 C 348.187 -3.33727 -2.74318 0
M  V30 3763 C 347.322 -3.46574 -4.02567 0
M  V30 3764 C 346.361 -4.68159 -3.94327 0
M  V30 3765 N 345.498 -4.77959 -5.14296 0
M  V30 3766 H 350.338 -2.74938 -1.14948 0
M  V30 3767 H 347.875 -1.36166 -0.556538 0
M  V30 3768 H 349.833 -2.1728 -3.56153 0
M  V30 3769 H 348.463 -1.1757 -3.00628 0
M  V30 3770 H 347.515 -3.31246 -1.8703 0
M  V30 3771 H 348.827 -4.23139 -2.64111 0
M  V30 3772 H 347.981 -3.57333 -4.90304 0
M  V30 3773 H 346.72 -2.55245 -4.15574 0
M  V30 3774 H 345.725 -4.57461 -3.04974 0
M  V30 3775 H 346.95 -5.60868 -3.82889 0
M  V30 3776 H 344.896 -3.89544 -5.27818 0
M  V30 3777 H 344.813 -5.6133 -5.06404 0
M  V30 3778 H 346.081 -4.93044 -6.03761 0
M  V30 3779 N 350.31 0.590341 -1.46126 0
M  V30 3780 C 351.535 1.37991 -1.54833 0
M  V30 3781 C 351.96 1.87163 -0.187506 0
M  V30 3782 O 351.318 1.61133 0.831008 0
M  V30 3783 C 351.366 2.54867 -2.55098 0
M  V30 3784 O 350.47 3.56061 -2.08073 0
M  V30 3785 H 349.811 0.411265 -0.521303 0
M  V30 3786 H 352.341 0.716819 -1.91632 0
M  V30 3787 H 352.351 3.01886 -2.74461 0
M  V30 3788 H 351.026 2.18429 -3.53923 0
M  V30 3789 H 349.603 3.15574 -1.98664 0
M  V30 3790 N 351.788 1.33704 0.83433 0
M  V30 3791 C 353.037 1.24763 1.58484 0
M  V30 3792 C 353.35 -0.183775 1.94735 0
M  V30 3793 O 354.556 -0.395234 2.68608 0
M  V30 3794 C 353.012 2.18638 2.85876 0
M  V30 3795 C 352.62 3.66974 2.56971 0
M  V30 3796 C 354.364 2.18581 3.63899 0
M  V30 3797 C 352.271 4.5275 3.80488 0
M  V30 3798 H 351.201 0.463425 0.594772 0
M  V30 3799 H 353.852 1.58797 0.919551 0
M  V30 3800 H 352.234 1.77542 3.5397 0
M  V30 3801 H 353.408 4.16538 1.9706 0
M  V30 3802 H 351.723 3.69366 1.92244 0
M  V30 3803 H 354.32 2.79894 4.55591 0
M  V30 3804 H 354.663 1.18207 3.99165 0
M  V30 3805 H 355.196 2.58062 3.02735 0
M  V30 3806 H 351.935 5.54017 3.5035 0
M  V30 3807 H 351.455 4.07927 4.39722 0
M  V30 3808 H 353.134 4.66784 4.4802 0
M  V30 3809 N 353.266 -1.05314 1.17247 0
M  V30 3810 C 354.494 -1.81971 0.984593 0
M  V30 3811 C 354.909 -1.82929 -0.467166 0
M  V30 3812 O 354.266 -1.25564 -1.32438 0
M  V30 3813 C 354.317 -3.28143 1.51672 0
M  V30 3814 O 354.038 -3.27347 2.91163 0
M  V30 3815 C 355.539 -4.21493 1.37326 0
M  V30 3816 H 352.759 -0.573455 0.348411 0
M  V30 3817 H 355.303 -1.32808 1.55506 0
M  V30 3818 H 353.458 -3.74582 0.988302 0
M  V30 3819 H 353.872 -4.18824 3.15732 0
M  V30 3820 H 355.346 -5.22043 1.79375 0
M  V30 3821 H 355.823 -4.38031 0.320169 0
M  V30 3822 H 356.429 -3.80909 1.89178 0
M  V30 3823 N 354.744 -0.972509 -1.24016 0
M  V30 3824 C 355.992 -0.635776 -1.91839 0
M  V30 3825 C 356.313 0.832312 -1.76345 0
M  V30 3826 O 355.583 1.5946 -1.13795 0
M  V30 3827 H 354.163 -0.232157 -0.710009 0
M  V30 3828 H 356.825 -1.23462 -1.50809 0
M  V30 3829 H 355.921 -0.880545 -2.99421 0
M  V30 3830 N 356.222 1.38976 -0.743202 0
M  V30 3831 C 357.132 2.3434 -0.110399 0
M  V30 3832 C 358.148 1.58741 0.712559 0
M  V30 3833 O 359.324 1.9099 0.639125 0
M  V30 3834 C 356.389 3.37812 0.780012 0
M  V30 3835 C 355.45 4.29263 -0.0561319 0
M  V30 3836 C 354.683 5.27793 0.791875 0
M  V30 3837 O 354.906 5.33043 2.03031 0
M  V30 3838 O 353.84 6.01512 0.216183 0
M  V30 3839 H 357.666 2.90129 -0.897714 0
M  V30 3840 H 355.251 1.40643 -0.503966 0
M  V30 3841 H 357.133 4.01194 1.28923 0
M  V30 3842 H 355.808 2.84395 1.546 0
M  V30 3843 H 354.715 3.69076 -0.611056 0
M  V30 3844 H 356.048 4.85907 -0.784531 0
M  V30 3845 N 357.7 0.491464 1.49741 0
M  V30 3846 C 358.93 -0.0534375 2.06531 0
M  V30 3847 C 359.338 -1.32233 1.35318 0
M  V30 3848 O 358.681 -1.78781 0.422243 0
M  V30 3849 C 358.743 -0.387034 3.57411 0
M  V30 3850 C 358.407 0.782764 4.50246 0
M  V30 3851 C 359.404 1.67059 4.92329 0
M  V30 3852 C 357.089 0.978866 4.9267 0
M  V30 3853 C 359.083 2.73874 5.75562 0
M  V30 3854 C 356.77 2.05022 5.75682 0
M  V30 3855 C 357.768 2.92851 6.17031 0
M  V30 3856 O 357.456 3.98138 6.98385 0
M  V30 3857 H 357.188 0.0129324 0.675876 0
M  V30 3858 H 359.742 0.685238 1.93633 0
M  V30 3859 H 357.972 -1.17918 3.68283 0
M  V30 3860 H 359.661 -0.869419 3.96479 0
M  V30 3861 H 360.427 1.53086 4.60206 0
M  V30 3862 H 356.306 0.304646 4.59992 0
M  V30 3863 H 359.85 3.42458 6.07757 0
M  V30 3864 H 355.747 2.18993 6.07217 0
M  V30 3865 H 356.515 3.95374 7.16674 0
M  V30 3866 N 359.178 -1.55987 0.224894 0
M  V30 3867 C 360.427 -1.97566 -0.406273 0
M  V30 3868 C 360.74 -1.11569 -1.6066 0
M  V30 3869 O 361.946 -1.43062 -2.3075 0
M  V30 3870 C 360.402 -3.51474 -0.774207 0
M  V30 3871 C 360.01 -4.46179 0.403496 0
M  V30 3872 C 361.754 -4.01758 -1.37079 0
M  V30 3873 C 359.661 -5.91399 0.0129412 0
M  V30 3874 H 358.591 -0.737777 -0.155565 0
M  V30 3875 H 361.242 -1.80659 0.321635 0
M  V30 3876 H 359.624 -3.63994 -1.55963 0
M  V30 3877 H 360.798 -4.45409 1.18101 0
M  V30 3878 H 359.113 -4.06255 0.913536 0
M  V30 3879 H 361.71 -5.07756 -1.67596 0
M  V30 3880 H 362.053 -3.47805 -2.28773 0
M  V30 3881 H 362.586 -3.92475 -0.648733 0
M  V30 3882 H 359.325 -6.49341 0.896451 0
M  V30 3883 H 358.845 -5.95356 -0.728821 0
M  V30 3884 H 360.524 -6.45683 -0.412582 0
M  V30 3885 N 360.656 0.0484629 -1.57525 0
M  V30 3886 C 361.902 0.744226 -1.88651 0
M  V30 3887 C 362.235 1.76029 -0.820212 0
M  V30 3888 O 361.51 1.93782 0.166985 0
M  V30 3889 C 361.793 1.43128 -3.30434 0
M  V30 3890 C 361.646 0.43005 -4.47739 0
M  V30 3891 C 362.965 2.37031 -3.70816 0
M  V30 3892 H 360.084 0.269089 -0.68612 0
M  V30 3893 H 362.726 0.00713532 -1.89999 0
M  V30 3894 H 360.876 2.05956 -3.29415 0
M  V30 3895 H 362.548 -0.194816 -4.60888 0
M  V30 3896 H 360.791 -0.252522 -4.33064 0
M  V30 3897 H 361.462 0.948874 -5.43783 0
M  V30 3898 H 363.938 1.84263 -3.73077 0
M  V30 3899 H 362.814 2.82094 -4.70865 0
M  V30 3900 H 363.075 3.22864 -3.02012 0
M  V30 3901 N 362.134 1.5431 0.320358 0
M  V30 3902 C 363.067 1.78769 1.41834 0
M  V30 3903 C 364.045 0.63783 1.49568 0
M  V30 3904 O 365.229 0.875628 1.66928 0
M  V30 3905 C 362.356 1.90712 2.79905 0
M  V30 3906 C 361.402 3.13023 2.89687 0
M  V30 3907 S 362.235 4.71554 2.53766 0
M  V30 3908 C 363.391 4.86408 3.93902 0
M  V30 3909 H 363.624 2.71619 1.20874 0
M  V30 3910 H 361.157 1.45474 0.517377 0
M  V30 3911 H 363.115 1.98279 3.59438 0
M  V30 3912 H 361.776 0.988343 2.98145 0
M  V30 3913 H 360.969 3.18124 3.90913 0
M  V30 3914 H 360.571 3.03803 2.18128 0
M  V30 3915 H 362.863 4.69241 4.88691 0
M  V30 3916 H 363.806 5.88508 3.93782 0
M  V30 3917 H 364.214 4.14689 3.83005 0
M  V30 3918 N 363.613 -0.582584 1.46437 0
M  V30 3919 C 364.841 -1.36682 1.55324 0
M  V30 3920 C 365.256 -1.87796 0.194409 0
M  V30 3921 O 364.613 -1.63623 -0.808318 0
M  V30 3922 C 364.664 -2.55426 2.55812 0
M  V30 3923 O 364.385 -2.0643 3.86417 0
M  V30 3924 C 365.886 -3.47976 2.74641 0
M  V30 3925 H 363.106 -0.417545 0.525259 0
M  V30 3926 H 365.65 -0.708219 1.91845 0
M  V30 3927 H 363.805 -3.17275 2.22295 0
M  V30 3928 H 364.219 -2.83762 4.41111 0
M  V30 3929 H 365.693 -4.27775 3.48874 0
M  V30 3930 H 366.17 -3.99919 1.81553 0
M  V30 3931 H 366.776 -2.91962 3.09255 0
M  V30 3932 N 365.091 -1.34144 -0.827227 0
M  V30 3933 C 366.337 -1.26446 -1.58554 0
M  V30 3934 C 366.67 0.1664 -1.93486 0
M  V30 3935 O 365.945 1.1107 -1.59667 0
M  V30 3936 C 366.228 -2.15111 -2.8879 0
M  V30 3937 C 366.081 -3.66712 -2.60465 0
M  V30 3938 C 367.4 -2.03311 -3.90324 0
M  V30 3939 H 364.519 -0.46067 -0.575284 0
M  V30 3940 H 367.161 -1.64356 -0.953269 0
M  V30 3941 H 365.311 -1.8291 -3.42748 0
M  V30 3942 H 366.983 -4.09259 -2.1285 0
M  V30 3943 H 365.226 -3.88014 -1.93978 0
M  V30 3944 H 365.897 -4.24112 -3.53317 0
M  V30 3945 H 368.373 -2.31574 -3.45706 0
M  V30 3946 H 367.249 -2.67582 -4.79261 0
M  V30 3947 H 367.51 -1.00879 -4.30437 0
M  V30 3948 N 366.569 1.04691 -1.17803 0
M  V30 3949 C 367.799 1.81183 -0.992788 0
M  V30 3950 C 368.207 1.8347 0.462098 0
M  V30 3951 O 367.55 1.2643 1.33271 0
M  V30 3952 C 367.612 3.28363 -1.46349 0
M  V30 3953 C 367.276 3.49749 -2.94151 0
M  V30 3954 C 368.273 3.41456 -3.92051 0
M  V30 3955 C 365.958 3.76548 -3.32441 0
M  V30 3956 C 367.952 3.59656 -5.26238 0
M  V30 3957 C 365.639 3.94396 -4.66792 0
M  V30 3958 C 366.637 3.8595 -5.635 0
M  V30 3959 O 366.325 4.03294 -6.9542 0
M  V30 3960 H 366.057 0.577622 -0.351182 0
M  V30 3961 H 368.611 1.32876 -1.5663 0
M  V30 3962 H 366.841 3.77609 -0.833574 0
M  V30 3963 H 368.53 3.86395 -1.24313 0
M  V30 3964 H 369.296 3.20723 -3.63815 0
M  V30 3965 H 365.175 3.82224 -2.57732 0
M  V30 3966 H 368.719 3.52979 -6.01707 0
M  V30 3967 H 364.616 4.14622 -4.94731 0
M  V30 3968 H 365.384 4.2049 -7.02232 0
M  V30 3969 N 368.047 0.979072 1.23499 0
M  V30 3970 C 369.294 0.647219 1.91878 0
M  V30 3971 C 369.622 -0.819074 1.76413 0
M  V30 3972 O 368.877 -1.60616 1.11808 0
M  V30 3973 C 369.176 0.981932 3.43646 0
M  V30 3974 C 368.842 2.43822 3.79291 0
M  V30 3975 C 367.504 2.83622 3.88731 0
M  V30 3976 C 369.856 3.3828 3.96505 0
M  V30 3977 C 367.184 4.16897 4.12812 0
M  V30 3978 C 369.536 4.71197 4.22085 0
M  V30 3979 C 368.2 5.10758 4.29747 0
M  V30 3980 H 367.47 0.236834 0.702133 0
M  V30 3981 H 370.117 1.23268 1.46551 0
M  V30 3982 H 368.422 0.314365 3.90537 0
M  V30 3983 H 370.119 0.703395 3.94783 0
M  V30 3984 H 366.709 2.11966 3.72516 0
M  V30 3985 H 370.893 3.0871 3.88603 0
M  V30 3986 H 366.149 4.47157 4.16966 0
M  V30 3987 H 370.323 5.44348 4.34348 0
M  V30 3988 H 367.95 6.1405 4.48159 0
M  V30 3989 N 369.525 -1.3858 0.750561 0
M  V30 3990 C 370.475 -2.27795 0.0965949 0
M  V30 3991 C 371.459 -1.45048 -0.696411 0
M  V30 3992 O 372.651 -1.67812 -0.562863 0
M  V30 3993 C 369.78 -3.33894 -0.798085 0
M  V30 3994 C 368.866 -4.241 0.0016067 0
M  V30 3995 N 369.257 -4.95067 1.03647 0
M  V30 3996 C 367.555 -4.45429 -0.225674 0
M  V30 3997 C 368.256 -5.61489 1.52004 0
M  V30 3998 N 367.232 -5.37135 0.835874 0
M  V30 3999 H 371.034 -2.80125 0.889228 0
M  V30 4000 H 368.548 -1.51446 0.586323 0
M  V30 4001 H 370.545 -3.96693 -1.28219 0
M  V30 4002 H 369.205 -2.83123 -1.5897 0
M  V30 4003 H 370.216 -4.98104 1.41819 0
M  V30 4004 H 366.893 -4.05571 -0.990872 0
M  V30 4005 H 368.283 -6.28264 2.38188 0
M  V30 4006 N 371.003 -0.499398 -1.49478 0
M  V30 4007 C 371.933 0.269244 -2.31943 0
M  V30 4008 C 372.914 0.964054 -1.40143 0
M  V30 4009 O 374.099 0.955767 -1.69052 0
M  V30 4010 C 371.229 1.33504 -3.20615 0
M  V30 4011 C 370.183 0.760202 -4.21195 0
M  V30 4012 C 369.509 1.9264 -4.98792 0
M  V30 4013 C 370.809 -0.247661 -5.21712 0
M  V30 4014 H 372.503 -0.419082 -2.96452 0
M  V30 4015 H 370.049 -0.202988 -1.42562 0
M  V30 4016 H 372.002 1.88048 -3.77115 0
M  V30 4017 H 370.726 2.05253 -2.54045 0
M  V30 4018 H 369.385 0.23653 -3.65836 0
M  V30 4019 H 369.033 2.63154 -4.28671 0
M  V30 4020 H 368.733 1.54785 -5.66847 0
M  V30 4021 H 370.257 2.4762 -5.58137 0
M  V30 4022 H 371.671 0.209579 -5.72917 0
M  V30 4023 H 370.068 -0.541962 -5.97648 0
M  V30 4024 H 371.138 -1.16409 -4.7072 0
M  V30 4025 N 372.481 1.55866 -0.233164 0
M  V30 4026 C 373.897 1.59133 0.121988 0
M  V30 4027 C 374.097 1.25016 1.58029 0
M  V30 4028 O 373.153 0.990922 2.32243 0
M  V30 4029 C 374.466 2.99932 -0.214792 0
M  V30 4030 C 376.014 3.12601 -0.157971 0
M  V30 4031 C 376.489 4.55597 -0.46859 0
M  V30 4032 N 377.98 4.61305 -0.418585 0
M  V30 4033 C 378.715 5.69903 -0.63227 0
M  V30 4034 N 378.211 6.86819 -0.90835 0
M  V30 4035 N 380.004 5.59264 -0.563913 0
M  V30 4036 H 372.155 1.76315 -1.18434 0
M  V30 4037 H 374.418 0.820093 -0.475553 0
M  V30 4038 H 374.124 3.29588 -1.22739 0
M  V30 4039 H 373.998 3.74327 0.464691 0
M  V30 4040 H 376.385 2.82735 0.845283 0
M  V30 4041 H 376.466 2.40511 -0.871102 0
M  V30 4042 H 376.11 4.86182 -1.46934 0
M  V30 4043 H 376.04 5.25928 0.265865 0
M  V30 4044 H 378.531 3.77297 -0.213368 0
M  V30 4045 H 378.844 7.65507 -1.05919 0
M  V30 4046 H 377.189 6.88536 -0.945673 0
M  V30 4047 H 380.38 4.66802 -0.348372 0
M  V30 4048 H 380.553 6.43831 -0.733847 0
M  V30 4049 N 373.959 -0.0401083 1.57549 0
M  V30 4050 C 375.375 -0.395556 1.54621 0
M  V30 4051 C 375.575 -1.77281 0.957799 0
M  V30 4052 O 374.631 -2.45888 0.574031 0
M  V30 4053 C 375.944 -0.307535 2.99123 0
M  V30 4054 C 377.492 -0.385425 3.10618 0
M  V30 4055 C 377.967 -0.326973 4.56831 0
M  V30 4056 N 379.458 -0.386102 4.61588 0
M  V30 4057 C 380.193 -0.363591 5.72246 0
M  V30 4058 N 379.689 -0.29402 6.92176 0
M  V30 4059 N 381.482 -0.412503 5.60584 0
M  V30 4060 H 373.633 0.861325 1.94152 0
M  V30 4061 H 375.896 0.326445 0.890021 0
M  V30 4062 H 375.602 0.638461 3.45856 0
M  V30 4063 H 375.476 -1.10552 3.60636 0
M  V30 4064 H 377.863 -1.32185 2.63839 0
M  V30 4065 H 377.944 0.44171 2.51957 0
M  V30 4066 H 377.588 0.605738 5.04275 0
M  V30 4067 H 377.518 -1.17207 5.13391 0
M  V30 4068 H 380.009 -0.442832 3.75296 0
M  V30 4069 H 380.322 -0.28164 7.72287 0
M  V30 4070 H 378.667 -0.260232 6.94513 0
M  V30 4071 H 381.858 -0.464769 4.65787 0
M  V30 4072 H 382.031 -0.391492 6.46816 0
M  V30 4073 N 375.437 -1.54477 -0.31217 0
M  V30 4074 C 376.384 -1.84655 -1.38461 0
M  V30 4075 C 377.354 -0.694536 -1.50882 0
M  V30 4076 O 378.539 -0.942081 -1.6592 0
M  V30 4077 C 375.679 -2.0896 -2.74645 0
M  V30 4078 C 374.792 -3.36618 -2.70763 0
M  V30 4079 C 373.927 -3.50824 -3.98868 0
M  V30 4080 C 372.966 -4.72315 -3.89339 0
M  V30 4081 N 372.103 -4.83387 -5.09197 0
M  V30 4082 H 376.943 -2.76142 -1.12026 0
M  V30 4083 H 374.48 -1.36748 -0.542065 0
M  V30 4084 H 376.438 -2.21045 -3.53829 0
M  V30 4085 H 375.068 -1.20752 -2.99364 0
M  V30 4086 H 374.12 -3.33211 -1.83506 0
M  V30 4087 H 375.432 -4.25917 -2.59608 0
M  V30 4088 H 374.586 -3.62513 -4.86486 0
M  V30 4089 H 373.325 -2.59638 -4.12843 0
M  V30 4090 H 372.33 -4.6067 -3.00105 0
M  V30 4091 H 373.555 -5.64897 -3.76919 0
M  V30 4092 H 371.501 -3.9512 -5.23657 0
M  V30 4093 H 371.418 -5.66669 -5.00422 0
M  V30 4094 H 372.686 -4.9942 -5.98498 0
M  V30 4095 N 376.915 0.57481 -1.46744 0
M  V30 4096 C 377.848 1.69827 -1.52427 0
M  V30 4097 C 378.826 1.58151 -0.377744 0
M  V30 4098 O 380.01 1.79257 -0.58303 0
M  V30 4099 C 377.137 3.07943 -1.41027 0
M  V30 4100 C 376.183 3.38116 -2.59961 0
M  V30 4101 S 377.016 3.29313 -4.22272 0
M  V30 4102 C 378.172 4.69953 -4.13394 0
M  V30 4103 H 378.405 1.64748 -2.47478 0
M  V30 4104 H 375.938 0.754203 -1.34726 0
M  V30 4105 H 377.896 3.87619 -1.35137 0
M  V30 4106 H 376.557 3.10504 -0.473909 0
M  V30 4107 H 375.75 4.38762 -2.47999 0
M  V30 4108 H 375.352 2.66024 -2.62882 0
M  V30 4109 H 377.644 5.60517 -3.80562 0
M  V30 4110 H 378.587 4.86972 -5.14066 0
M  V30 4111 H 378.995 4.47174 -3.44522 0
M  V30 4112 N 378.394 1.34581 0.820102 0
M  V30 4113 C 379.642 1.26845 1.57336 0
M  V30 4114 C 379.963 -0.160667 1.94337 0
M  V30 4115 O 379.233 -1.09396 1.6251 0
M  V30 4116 H 377.813 0.466514 0.583415 0
M  V30 4117 H 380.475 1.68526 0.979027 0
M  V30 4118 H 379.571 1.87513 2.4949 0
M  V30 4119 N 379.872 -1.04064 1.18357 0
M  V30 4120 C 381.102 -1.80654 1.00238 0
M  V30 4121 C 381.51 -1.83713 -0.452362 0
M  V30 4122 O 380.853 -1.27135 -1.32599 0
M  V30 4123 C 380.915 -3.27582 1.48088 0
M  V30 4124 C 380.579 -3.48184 2.96002 0
M  V30 4125 C 381.576 -3.39372 3.93856 0
M  V30 4126 C 379.261 -3.7478 3.34433 0
M  V30 4127 C 381.255 -3.5686 5.28138 0
M  V30 4128 C 378.942 -3.91915 4.68877 0
M  V30 4129 C 379.94 -3.82956 5.65539 0
M  V30 4130 O 379.628 -3.996 6.97549 0
M  V30 4131 H 379.36 -0.575751 0.354241 0
M  V30 4132 H 381.914 -1.32044 1.57333 0
M  V30 4133 H 380.144 -3.77161 0.853588 0
M  V30 4134 H 381.833 -3.8573 1.2636 0
M  V30 4135 H 382.599 -3.18789 3.65511 0
M  V30 4136 H 378.478 -3.80852 2.59756 0
M  V30 4137 H 382.022 -3.49783 6.03571 0
M  V30 4138 H 377.919 -4.11992 4.96923 0
M  V30 4139 H 378.687 -4.1676 7.04452 0
M  V30 4140 N 381.35 -0.985608 -1.22978 0
M  V30 4141 C 382.597 -0.657386 -1.91532 0
M  V30 4142 C 382.925 0.809707 -1.76845 0
M  V30 4143 O 382.18 1.60021 -1.12658 0
M  V30 4144 C 382.479 -1.00014 -3.43121 0
M  V30 4145 C 382.145 -2.4583 -3.77993 0
M  V30 4146 C 380.807 -2.85679 -3.87222 0
M  V30 4147 C 383.159 -3.40378 -3.94705 0
M  V30 4148 C 380.487 -4.19081 -4.10595 0
M  V30 4149 C 382.839 -4.73429 -4.1958 0
M  V30 4150 C 381.503 -5.1303 -4.27032 0
M  V30 4151 H 380.773 -0.240555 -0.700867 0
M  V30 4152 H 383.42 -1.24044 -1.45895 0
M  V30 4153 H 381.725 -0.335072 -3.90365 0
M  V30 4154 H 383.422 -0.724322 -3.94404 0
M  V30 4155 H 380.012 -2.13939 -3.71387 0
M  V30 4156 H 384.196 -3.10766 -3.8696 0
M  V30 4157 H 379.452 -4.49362 -4.14589 0
M  V30 4158 H 383.626 -5.46644 -4.31455 0
M  V30 4159 H 381.253 -6.16418 -4.44896 0
M  V30 4160 N 382.828 1.3818 -0.7579 0
M  V30 4161 C 383.761 2.28055 -0.0814093 0
M  V30 4162 C 384.739 1.45603 0.723779 0
M  V30 4163 O 385.923 1.74961 0.701491 0
M  V30 4164 C 383.05 3.2676 0.891394 0
M  V30 4165 C 382.096 4.26153 0.171909 0
M  V30 4166 S 382.929 5.23434 -1.13035 0
M  V30 4167 C 384.085 6.25694 -0.160727 0
M  V30 4168 H 384.318 2.85082 -0.84353 0
M  V30 4169 H 381.851 1.44246 -0.550671 0
M  V30 4170 H 383.809 3.8414 1.44731 0
M  V30 4171 H 382.47 2.68706 1.62652 0
M  V30 4172 H 381.663 4.95738 0.908843 0
M  V30 4173 H 381.265 3.72691 -0.312606 0
M  V30 4174 H 383.557 6.74161 0.671773 0
M  V30 4175 H 384.5 7.03285 -0.824353 0
M  V30 4176 H 384.908 5.64064 0.221892 0
M  V30 4177 N 384.306 0.507319 1.49211 0
M  V30 4178 C 385.555 -0.0368315 2.01666 0
M  V30 4179 C 385.868 -1.37459 1.39156 0
M  V30 4180 O 387.074 -2.00579 1.82976 0
M  V30 4181 C 385.53 -0.116089 3.59713 0
M  V30 4182 C 385.138 1.2154 4.31198 0
M  V30 4183 C 386.882 -0.610268 4.2009 0
M  V30 4184 C 384.789 1.09796 5.81119 0
M  V30 4185 H 383.719 -0.0175376 0.753796 0
M  V30 4186 H 386.37 0.647691 1.71689 0
M  V30 4187 H 384.752 -0.8652 3.86433 0
M  V30 4188 H 385.926 1.9783 4.16173 0
M  V30 4189 H 384.241 1.64352 3.82593 0
M  V30 4190 H 386.838 -0.715742 5.29888 0
M  V30 4191 H 387.181 -1.61064 3.8388 0
M  V30 4192 H 387.714 0.0824916 3.97714 0
M  V30 4193 H 384.453 2.0728 6.21864 0
M  V30 4194 H 383.973 0.376058 5.9862 0
M  V30 4195 H 385.652 0.779281 6.4229 0
M  V30 4196 N 385.784 -1.5574 0.241426 0
M  V30 4197 C 386.716 -2.18469 -0.693091 0
M  V30 4198 C 387.729 -1.15942 -1.14286 0
M  V30 4199 O 388.918 -1.42832 -1.07058 0
M  V30 4200 C 386.018 -2.7696 -1.95311 0
M  V30 4201 C 385.191 -4.04853 -1.65568 0
M  V30 4202 C 384.25 -4.47715 -2.76474 0
M  V30 4203 O 383.276 -5.14205 -2.44094 0
M  V30 4204 N 384.478 -4.15044 -4.05855 0
M  V30 4205 H 387.243 -2.99292 -0.156388 0
M  V30 4206 H 384.804 -1.61784 0.0611752 0
M  V30 4207 H 386.796 -3.02594 -2.68736 0
M  V30 4208 H 385.366 -2.00326 -2.39975 0
M  V30 4209 H 384.586 -3.86865 -0.756886 0
M  V30 4210 H 385.874 -4.88246 -1.43153 0
M  V30 4211 H 385.272 -3.61654 -4.34998 0
M  V30 4212 H 383.829 -4.45526 -4.75762 0
M  V30 4213 N 387.262 0.0317525 -1.57568 0
M  V30 4214 C 388.49 0.734949 -1.93407 0
M  V30 4215 C 388.905 1.69036 -0.84096 0
M  V30 4216 O 388.262 1.81582 0.182836 0
M  V30 4217 C 388.313 1.49432 -3.29169 0
M  V30 4218 O 388.034 0.577261 -4.3428 0
M  V30 4219 C 389.535 2.29492 -3.79273 0
M  V30 4220 H 386.755 0.206706 -0.638368 0
M  V30 4221 H 389.299 -0.00992046 -2.04498 0
M  V30 4222 H 387.454 2.1911 -3.19483 0
M  V30 4223 H 387.868 1.10952 -5.1263 0
M  V30 4224 H 389.342 2.78172 -4.76785 0
M  V30 4225 H 389.819 3.10794 -3.10328 0
M  V30 4226 H 390.425 1.64894 -3.92033 0
M  V30 4227 N 388.74 1.54641 0.303973 0
M  V30 4228 C 389.97 1.77511 1.05705 0
M  V30 4229 C 390.378 0.533228 1.81531 0
M  V30 4230 O 389.721 -0.506423 1.76582 0
M  V30 4231 C 389.783 2.92779 2.08617 0
M  V30 4232 C 389.447 4.30977 1.52013 0
M  V30 4233 C 390.444 5.11115 0.9517 0
M  V30 4234 C 388.129 4.77571 1.55665 0
M  V30 4235 C 390.123 6.35966 0.427327 0
M  V30 4236 C 387.81 6.02384 1.02841 0
M  V30 4237 C 388.808 6.81417 0.464713 0
M  V30 4238 O 388.496 8.03881 -0.0555283 0
M  V30 4239 H 388.228 0.59579 0.319391 0
M  V30 4240 H 390.782 2.02401 0.349712 0
M  V30 4241 H 389.012 2.63506 2.83022 0
M  V30 4242 H 390.701 3.03252 2.69802 0
M  V30 4243 H 391.467 4.76264 0.916407 0
M  V30 4244 H 387.346 4.16085 1.9848 0
M  V30 4245 H 390.89 6.97599 -0.0133062 0
M  V30 4246 H 386.787 6.36723 1.06084 0
M  V30 4247 H 387.555 8.18479 0.0580522 0
M  V30 4248 N 390.218 -0.567019 1.47046 0
M  V30 4249 C 391.467 -1.32091 1.5243 0
M  V30 4250 C 391.78 -1.94704 0.187021 0
M  V30 4251 O 392.986 -2.7124 0.118771 0
M  V30 4252 C 391.442 -2.39479 2.68659 0
M  V30 4253 C 391.05 -1.831 4.08874 0
M  V30 4254 C 392.794 -3.16111 2.83327 0
M  V30 4255 C 390.701 -2.8821 5.16419 0
M  V30 4256 H 389.631 -0.496629 0.56734 0
M  V30 4257 H 392.282 -0.603354 1.73297 0
M  V30 4258 H 390.664 -3.14105 2.41152 0
M  V30 4259 H 391.838 -1.14913 4.46242 0
M  V30 4260 H 390.153 -1.19085 3.99008 0
M  V30 4261 H 392.75 -3.94585 3.60842 0
M  V30 4262 H 393.093 -3.69686 1.91411 0
M  V30 4263 H 393.626 -2.48595 3.10556 0
M  V30 4264 H 390.365 -2.39504 6.10179 0
M  V30 4265 H 389.885 -3.54839 4.8358 0
M  V30 4266 H 391.564 -3.51881 5.42945 0
M  V30 4267 N 391.696 -1.35014 -0.812953 0
M  V30 4268 C 393.107 -1.25035 -1.38648 0
M  V30 4269 C 393.458 0.119967 -1.95833 0
M  V30 4270 O 392.583 1.02069 -1.90816 0
M  V30 4271 C 393.178 -2.26394 -2.52054 0
M  V30 4272 C 391.737 -2.20175 -3.05287 0
M  V30 4273 C 390.884 -2.12451 -1.78213 0
M  V30 4274 H 393.835 -1.46235 -0.616516 0
M  V30 4275 H 393.856 -1.88672 -3.30429 0
M  V30 4276 H 393.368 -3.26116 -2.10404 0
M  V30 4277 H 391.469 -1.23841 -3.51417 0
M  V30 4278 H 391.582 -3.11863 -3.63701 0
M  V30 4279 H 389.946 -1.58328 -1.9951 0
M  V30 4280 H 390.729 -3.14024 -1.38723 0
M  V30 4281 N 393.175 1.03435 -1.18907 0
M  V30 4282 C 394.415 1.78302 -0.999391 0
M  V30 4283 C 394.779 1.86353 0.462219 0
M  V30 4284 O 395.98 2.57489 0.771543 0
M  V30 4285 C 394.251 3.17362 -1.64365 0
M  V30 4286 S 395.81 4.08488 -1.6026 0
M  V30 4287 H 392.628 0.613861 -0.358742 0
M  V30 4288 H 395.23 1.23979 -1.51161 0
M  V30 4289 H 393.934 3.09116 -2.69955 0
M  V30 4290 H 393.465 3.76762 -1.13199 0
M  V30 4291 H 395.48 4.92274 -0.622932 0
M  V30 4292 N 394.653 0.992116 1.22453 0
M  V30 4293 C 395.902 0.662992 1.90492 0
M  V30 4294 C 396.215 -0.808407 1.78113 0
M  V30 4295 O 397.421 -1.24908 2.41061 0
M  V30 4296 C 395.877 1.1353 3.41524 0
M  V30 4297 C 395.485 2.63187 3.62542 0
M  V30 4298 C 397.229 0.880465 4.15269 0
M  V30 4299 C 395.136 3.04024 5.0727 0
M  V30 4300 H 394.066 0.244278 0.713333 0
M  V30 4301 H 396.717 1.20157 1.38688 0
M  V30 4302 H 395.099 0.52485 3.92506 0
M  V30 4303 H 396.273 3.2957 3.22056 0
M  V30 4304 H 394.588 2.86543 3.02129 0
M  V30 4305 H 397.185 1.16128 5.21937 0
M  V30 4306 H 397.528 -0.183408 4.15896 0
M  V30 4307 H 398.061 1.45307 3.70312 0
M  V30 4308 H 394.8 4.09584 5.11782 0
M  V30 4309 H 394.32 2.42343 5.48662 0
M  V30 4310 H 395.999 2.95282 5.75689 0
M  V30 4311 N 396.131 -1.37776 0.765217 0
M  V30 4312 C 397.064 -2.28008 0.0935025 0
M  V30 4313 C 398.042 -1.45985 -0.716047 0
M  V30 4314 O 399.226 -1.75331 -0.692203 0
M  V30 4315 C 396.353 -3.27228 -0.874052 0
M  V30 4316 C 395.399 -4.26239 -0.149307 0
M  V30 4317 S 396.232 -5.22827 1.15809 0
M  V30 4318 C 397.388 -6.256 0.193906 0
M  V30 4319 H 397.621 -2.84631 0.858637 0
M  V30 4320 H 395.154 -1.43952 0.558313 0
M  V30 4321 H 397.112 -3.84902 -1.42691 0
M  V30 4322 H 395.773 -2.69565 -1.61225 0
M  V30 4323 H 394.966 -4.96213 -0.88254 0
M  V30 4324 H 394.568 -3.7252 0.332366 0
M  V30 4325 H 396.86 -6.74508 -0.636011 0
M  V30 4326 H 397.803 -7.02838 0.861638 0
M  V30 4327 H 398.211 -5.64173 -0.191975 0
M  V30 4328 N 397.609 -0.515225 -1.4894 0
M  V30 4329 C 398.837 0.0206034 -2.0689 0
M  V30 4330 C 399.252 1.29514 -1.37374 0
M  V30 4331 O 398.609 1.76698 -0.456529 0
M  V30 4332 C 398.66 0.26351 -3.60538 0
M  V30 4333 O 398.381 -0.960517 -4.27441 0
M  V30 4334 C 399.882 0.841383 -4.35242 0
M  V30 4335 H 397.102 -0.0268608 -0.670462 0
M  V30 4336 H 399.646 -0.716651 -1.91532 0
M  V30 4337 H 397.801 0.950777 -3.75552 0
M  V30 4338 H 398.215 -0.73212 -5.19365 0
M  V30 4339 H 399.689 0.96085 -5.43573 0
M  V30 4340 H 400.166 1.8427 -3.98674 0
M  V30 4341 H 400.772 0.191143 -4.2487 0
M  V30 4342 N 399.087 1.5561 -0.249682 0
M  V30 4343 C 400.333 1.99306 0.374841 0
M  V30 4344 C 400.666 1.13767 1.57387 0
M  V30 4345 O 399.941 0.201711 1.93451 0
M  V30 4346 C 400.224 3.51507 0.781986 0
M  V30 4347 C 400.077 4.4781 -0.422629 0
M  V30 4348 C 401.396 4.08884 1.62793 0
M  V30 4349 H 398.515 0.724572 0.134773 0
M  V30 4350 H 401.157 1.86719 -0.351549 0
M  V30 4351 H 399.307 3.62363 1.4009 0
M  V30 4352 H 400.979 4.48931 -1.06108 0
M  V30 4353 H 399.222 4.20518 -1.06524 0
M  V30 4354 H 399.893 5.51919 -0.0943766 0
M  V30 4355 H 402.369 4.01147 1.10547 0
M  V30 4356 H 401.245 5.1564 1.88166 0
M  V30 4357 H 401.506 3.57515 2.60068 0
M  V30 4358 N 400.565 -0.0233959 1.57583 0
M  V30 4359 C 401.814 -0.712133 1.8871 0
M  V30 4360 C 402.127 -1.76217 0.848944 0
M  V30 4361 O 403.333 -2.50389 1.04964 0
M  V30 4362 C 401.789 -1.3177 3.3491 0
M  V30 4363 C 401.397 -0.303715 4.46969 0
M  V30 4364 C 403.141 -1.98598 3.75179 0
M  V30 4365 C 401.048 -0.917945 5.84233 0
M  V30 4366 H 399.978 -0.269735 0.704101 0
M  V30 4367 H 402.629 0.0333114 1.8347 0
M  V30 4368 H 401.011 -2.11304 3.34913 0
M  V30 4369 H 402.185 0.465325 4.58445 0
M  V30 4370 H 400.5 0.2628 4.1557 0
M  V30 4371 H 403.097 -2.45416 4.75053 0
M  V30 4372 H 403.44 -2.80659 3.07468 0
M  V30 4373 H 403.973 -1.25831 3.77374 0
M  V30 4374 H 400.712 -0.136633 6.55358 0
M  V30 4375 H 400.232 -1.65669 5.76467 0
M  V30 4376 H 401.911 -1.4236 6.31144 0
M  V30 4377 N 402.043 -1.548 -0.295768 0
M  V30 4378 C 402.973 -1.89115 -1.36959 0
M  V30 4379 C 403.954 -0.75059 -1.52644 0
M  V30 4380 O 405.139 -1.00678 -1.66065 0
M  V30 4381 C 402.269 -2.14307 -2.73295 0
M  V30 4382 C 401.223 -3.30151 -2.72368 0
M  V30 4383 C 400.549 -3.40772 -4.12042 0
M  V30 4384 C 401.849 -4.67126 -2.33646 0
M  V30 4385 H 403.543 -2.79053 -1.08488 0
M  V30 4386 H 401.089 -1.34266 -0.520443 0
M  V30 4387 H 403.042 -2.36898 -3.48507 0
M  V30 4388 H 401.766 -1.21145 -3.03301 0
M  V30 4389 H 400.425 -3.0749 -1.99613 0
M  V30 4390 H 400.073 -2.45117 -4.39234 0
M  V30 4391 H 399.773 -4.18645 -4.12322 0
M  V30 4392 H 401.297 -3.6563 -4.89027 0
M  V30 4393 H 402.711 -4.89414 -2.98575 0
M  V30 4394 H 401.108 -5.47751 -2.45129 0
M  V30 4395 H 402.178 -4.67489 -1.28772 0
M  V30 4396 N 403.521 0.559213 -1.47345 0
M  V30 4397 C 404.746 1.34676 -1.57725 0
M  V30 4398 C 405.171 1.86723 -0.227164 0
M  V30 4399 O 404.529 1.6286 0.796642 0
M  V30 4400 C 404.577 2.49399 -2.60447 0
M  V30 4401 O 403.681 3.51567 -2.15578 0
M  V30 4402 H 403.022 0.400115 -0.52991 0
M  V30 4403 H 405.552 0.676009 -1.93109 0
M  V30 4404 H 405.562 2.95996 -2.80803 0
M  V30 4405 H 404.237 2.10873 -3.58477 0
M  V30 4406 H 402.814 3.11289 -2.05313 0
M  V30 4407 N 404.999 1.35443 0.805782 0
M  V30 4408 C 405.931 1.24285 1.92577 0
M  V30 4409 C 406.944 0.165962 1.61952 0
M  V30 4410 O 408.133 0.419303 1.73505 0
M  V30 4411 C 405.233 0.891272 3.2697 0
M  V30 4412 C 404.406 2.06669 3.85495 0
M  V30 4413 C 403.465 1.69077 4.98297 0
M  V30 4414 O 402.491 2.4096 5.15681 0
M  V30 4415 N 403.693 0.614869 5.77234 0
M  V30 4416 H 406.458 2.20777 2.02676 0
M  V30 4417 H 404.019 1.28623 0.983243 0
M  V30 4418 H 406.011 0.621256 3.99903 0
M  V30 4419 H 404.581 0.016004 3.12596 0
M  V30 4420 H 403.801 2.50046 3.04747 0
M  V30 4421 H 405.089 2.85237 4.21328 0
M  V30 4422 H 404.487 0.017648 5.65697 0
M  V30 4423 H 403.044 0.404636 6.50543 0
M  V30 4424 N 406.477 -1.02803 1.19454 0
M  V30 4425 C 407.723 -1.76478 0.999171 0
M  V30 4426 C 408.056 -1.88456 -0.468828 0
M  V30 4427 O 407.331 -1.40198 -1.34814 0
M  V30 4428 C 407.614 -3.19044 1.66981 0
M  V30 4429 C 407.467 -3.14932 3.21151 0
M  V30 4430 C 408.786 -4.17456 1.39349 0
M  V30 4431 H 405.905 -0.640614 0.364393 0
M  V30 4432 H 408.547 -1.20005 1.47305 0
M  V30 4433 H 406.697 -3.67263 1.2669 0
M  V30 4434 H 408.369 -2.74605 3.70661 0
M  V30 4435 H 406.612 -2.52625 3.52652 0
M  V30 4436 H 407.283 -4.1566 3.63223 0
M  V30 4437 H 409.759 -3.77842 1.74283 0
M  V30 4438 H 408.635 -5.154 1.88823 0
M  V30 4439 H 408.896 -4.40949 0.318813 0
M  V30 4440 N 407.956 -0.998596 -1.21925 0
M  V30 4441 C 409.181 -0.696015 -1.95372 0
M  V30 4442 C 409.606 0.733826 -1.73195 0
M  V30 4443 O 408.964 1.50242 -1.01474 0
M  V30 4444 C 409.012 -1.01466 -3.4603 0
M  V30 4445 O 408.116 -0.116415 -4.12236 0
M  V30 4446 H 407.457 -0.259938 -0.611006 0
M  V30 4447 H 409.987 -1.33711 -1.54863 0
M  V30 4448 H 409.997 -0.958855 -3.96573 0
M  V30 4449 H 408.672 -2.05653 -3.61497 0
M  V30 4450 H 407.249 -0.228193 -3.72201 0
M  V30 4451 N 409.434 1.37368 -0.772513 0
M  V30 4452 C 410.681 1.99673 -0.337182 0
M  V30 4453 C 411.009 1.61324 1.0865 0
M  V30 4454 O 410.264 0.851377 1.7621 0
M  V30 4455 C 410.563 3.54817 -0.428876 0
M  V30 4456 C 410.229 4.12936 -1.81092 0
M  V30 4457 C 408.891 4.28523 -2.1891 0
M  V30 4458 C 411.243 4.44801 -2.71664 0
M  V30 4459 C 408.571 4.73277 -3.46735 0
M  V30 4460 C 410.923 4.90981 -3.98899 0
M  V30 4461 C 409.587 5.04773 -4.36761 0
M  V30 4462 H 408.857 0.730656 -0.123384 0
M  V30 4463 H 411.504 1.64124 -0.986686 0
M  V30 4464 H 409.809 3.90618 0.304167 0
M  V30 4465 H 411.506 4.00933 -0.0733334 0
M  V30 4466 H 408.096 4.01233 -1.50699 0
M  V30 4467 H 412.28 4.32344 -2.43706 0
M  V30 4468 H 407.536 4.82142 -3.75964 0
M  V30 4469 H 411.71 5.14603 -4.69208 0
M  V30 4470 H 409.337 5.39211 -5.35868 0
M  V30 4471 N 410.912 0.523116 1.48665 0
M  V30 4472 C 412.158 -0.00540031 2.03399 0
M  V30 4473 C 412.513 -1.3264 1.39372 0
M  V30 4474 O 411.806 -1.84184 0.527916 0
M  V30 4475 C 412 -0.191671 3.56886 0
M  V30 4476 C 411.829 1.10972 4.35793 0
M  V30 4477 C 410.599 1.66769 4.76987 0
M  V30 4478 C 412.797 2.01861 4.73029 0
M  V30 4479 N 410.779 2.91268 5.40404 0
M  V30 4480 C 412.15 3.10937 5.36394 0
M  V30 4481 C 414.205 2.02271 4.54962 0
M  V30 4482 C 412.908 4.20478 5.83601 0
M  V30 4483 C 414.934 3.10802 5.03146 0
M  V30 4484 C 414.296 4.18597 5.6653 0
M  V30 4485 H 410.395 0.0393531 0.781009 0
M  V30 4486 H 412.979 0.702876 1.8157 0
M  V30 4487 H 411.15 -0.869025 3.78553 0
M  V30 4488 H 412.882 -0.719177 3.98259 0
M  V30 4489 H 409.637 1.20996 4.57883 0
M  V30 4490 H 410.061 3.54635 5.76683 0
M  V30 4491 H 414.703 1.2023 4.05345 0
M  V30 4492 H 412.421 5.03303 6.32228 0
M  V30 4493 H 416.007 3.12166 4.90962 0
M  V30 4494 H 414.887 5.01193 6.03138 0
M  V30 4495 N 412.39 -1.55475 0.257931 0
M  V30 4496 C 413.639 -1.98383 -0.364275 0
M  V30 4497 C 413.952 -1.14952 -1.58258 0
M  V30 4498 O 415.158 -1.47924 -2.27664 0
M  V30 4499 C 413.614 -3.53037 -0.699479 0
M  V30 4500 C 413.222 -4.45223 0.498046 0
M  V30 4501 C 414.966 -4.04575 -1.28526 0
M  V30 4502 C 412.873 -5.91238 0.138383 0
M  V30 4503 H 411.803 -0.740911 -0.13988 0
M  V30 4504 H 414.454 -1.79936 0.359883 0
M  V30 4505 H 412.836 -3.6722 -1.48207 0
M  V30 4506 H 414.01 -4.42803 1.27522 0
M  V30 4507 H 412.325 -4.04226 0.999503 0
M  V30 4508 H 414.922 -5.11196 -1.56788 0
M  V30 4509 H 415.265 -3.5258 -2.21344 0
M  V30 4510 H 415.798 -3.93762 -0.565337 0
M  V30 4511 H 412.537 -6.47294 1.03398 0
M  V30 4512 H 412.057 -5.96768 -0.602374 0
M  V30 4513 H 413.736 -6.46413 -0.27553 0
M  V30 4514 N 413.868 0.0150385 -1.57593 0
M  V30 4515 C 414.816 1.02958 -2.08572 0
M  V30 4516 C 415.81 1.36554 -1.00246 0
M  V30 4517 O 417.016 1.35295 -1.18724 0
M  V30 4518 H 413.391 0.349619 -0.665786 0
M  V30 4519 H 415.362 0.573932 -2.92829 0
M  V30 4520 C 414.111 2.31752 -2.59203 0
M  V30 4521 H 413.434 2.06765 -3.42182 0
M  V30 4522 H 414.874 3.01053 -2.98568 0
M  V30 4523 C 413.333 3.01692 -1.49945 0
M  V30 4524 O 413.863 3.92083 -0.873704 0
M  V30 4525 N 412.069 2.6326 -1.23056 0
M  V30 4526 H 411.616 1.89838 -1.74125 0
M  V30 4527 H 411.574 3.10372 -0.501685 0
M  V30 4528 N 415.346 1.54954 0.287554 0
M  V30 4529 C 416.293 1.86834 1.35505 0
M  V30 4530 C 417.263 0.718452 1.49758 0
M  V30 4531 O 418.448 0.968358 1.644 0
M  V30 4532 C 415.588 2.13303 2.71286 0
M  V30 4533 C 414.701 3.40883 2.65373 0
M  V30 4534 C 413.836 3.57125 3.93236 0
M  V30 4535 C 412.875 4.78449 3.81776 0
M  V30 4536 N 412.012 4.91426 5.01443 0
M  V30 4537 H 416.852 2.77889 1.07619 0
M  V30 4538 H 414.389 1.37593 0.520241 0
M  V30 4539 H 416.347 2.26646 3.50267 0
M  V30 4540 H 414.977 1.25499 2.97405 0
M  V30 4541 H 414.029 3.36088 1.78182 0
M  V30 4542 H 415.341 4.29993 2.52799 0
M  V30 4543 H 414.495 3.70207 4.80658 0
M  V30 4544 H 413.234 2.66173 4.0866 0
M  V30 4545 H 412.239 4.65386 2.92738 0
M  V30 4546 H 413.464 5.70822 3.67884 0
M  V30 4547 H 411.41 4.03401 5.17304 0
M  V30 4548 H 411.327 5.74559 4.91343 0
M  V30 4549 H 412.595 5.08879 5.90477 0
M  V30 4550 N 416.824 -0.551391 1.4764 0
M  V30 4551 C 417.734 -1.68525 1.63207 0
M  V30 4552 C 418.75 -1.6621 0.514815 0
M  V30 4553 O 419.926 -1.85551 0.783113 0
M  V30 4554 C 416.991 -3.05025 1.64805 0
M  V30 4555 C 416.052 -3.18362 2.88 0
M  V30 4556 C 415.285 -4.4835 2.89513 0
M  V30 4557 O 415.508 -5.34163 2.00065 0
M  V30 4558 O 414.442 -4.65602 3.81443 0
M  V30 4559 H 418.268 -1.58333 2.59161 0
M  V30 4560 H 415.853 -0.722063 1.30792 0
M  V30 4561 H 417.735 -3.86245 1.68502 0
M  V30 4562 H 416.41 -3.15587 0.720197 0
M  V30 4563 H 415.317 -2.36518 2.89845 0
M  V30 4564 H 416.65 -3.12707 3.80099 0
M  V30 4565 N 418.302 -1.35869 -0.798587 0
M  V30 4566 C 419.527 -1.32883 -1.59238 0
M  V30 4567 C 419.952 0.0894587 -1.87887 0
M  V30 4568 O 419.31 1.05869 -1.47178 0
M  V30 4569 C 419.358 -2.14892 -2.89575 0
M  V30 4570 O 418.462 -1.53512 -3.82763 0
M  V30 4571 H 417.803 -0.455236 -0.48338 0
M  V30 4572 H 420.333 -1.79024 -0.990539 0
M  V30 4573 H 420.343 -2.27139 -3.38928 0
M  V30 4574 H 419.018 -3.17998 -2.68049 0
M  V30 4575 H 417.595 -1.50153 -3.41334 0
M  V30 4576 N 419.78 1.02168 -1.19998 0
M  V30 4577 C 421.026 1.75945 -1.00852 0
M  V30 4578 C 421.359 1.88702 0.458828 0
M  V30 4579 O 420.634 1.40911 1.34069 0
M  V30 4580 C 420.917 3.18154 -1.68671 0
M  V30 4581 C 420.77 3.13224 -3.22817 0
M  V30 4582 C 422.089 4.16711 -1.41561 0
M  V30 4583 H 419.208 0.638673 -0.367785 0
M  V30 4584 H 421.85 1.19222 -1.4794 0
M  V30 4585 H 420 3.66586 -1.28636 0
M  V30 4586 H 421.672 2.72635 -3.72112 0
M  V30 4587 H 419.915 2.50751 -3.53986 0
M  V30 4588 H 420.586 4.13728 -3.65422 0
M  V30 4589 H 423.062 3.76913 -1.76284 0
M  V30 4590 H 421.938 5.14391 -1.91553 0
M  V30 4591 H 422.199 4.40774 -0.342193 0
M  V30 4592 N 421.258 1.00505 1.21394 0
M  V30 4593 C 422.669 0.721082 1.72213 0
M  V30 4594 C 423.02 -0.761263 1.80829 0
M  V30 4595 O 422.145 -1.59464 1.46288 0
M  V30 4596 C 422.74 1.30228 3.12772 0
M  V30 4597 C 421.299 1.06743 3.60947 0
M  V30 4598 C 420.446 1.41507 2.38477 0
M  V30 4599 H 423.397 1.17594 1.06571 0
M  V30 4600 H 423.418 0.686955 3.74247 0
M  V30 4601 H 422.93 2.38115 3.06468 0
M  V30 4602 H 421.031 0.00572162 3.726 0
M  V30 4603 H 421.144 1.73936 4.46411 0
M  V30 4604 H 419.508 0.833852 2.40664 0
M  V30 4605 H 420.291 2.50424 2.34824 0
M  V30 4606 N 422.737 -1.36956 0.779787 0
M  V30 4607 C 423.7 -2.2851 0.177662 0
M  V30 4608 C 424.7 -1.48393 -0.619377 0
M  V30 4609 O 425.89 -1.68505 -0.441785 0
M  V30 4610 C 423.022 -3.32428 -0.755279 0
M  V30 4611 H 424.215 -2.83269 0.984823 0
M  V30 4612 H 421.768 -1.46358 0.548544 0
M  V30 4613 H 422.503 -2.82808 -1.58714 0
M  V30 4614 H 422.288 -3.91659 -0.185817 0
M  V30 4615 H 423.778 -4.00824 -1.17174 0
M  V30 4616 N 424.215 -0.530993 -1.48385 0
M  V30 4617 C 425.631 -0.188919 -1.58478 0
M  V30 4618 C 425.831 1.30786 -1.53288 0
M  V30 4619 O 424.887 2.08619 -1.42248 0
M  V30 4620 C 426.2 -0.792343 -2.90073 0
M  V30 4621 C 427.748 -0.76117 -3.03604 0
M  V30 4622 C 428.223 -1.34319 -4.37861 0
M  V30 4623 N 429.714 -1.3052 -4.44431 0
M  V30 4624 C 430.449 -1.72543 -5.46824 0
M  V30 4625 N 429.945 -2.22299 -6.56167 0
M  V30 4626 N 431.738 -1.63773 -5.37712 0
M  V30 4627 H 423.889 -1.50377 -1.50002 0
M  V30 4628 H 426.152 -0.625559 -0.712306 0
M  V30 4629 H 425.858 -1.84323 -2.99529 0
M  V30 4630 H 425.732 -0.270026 -3.76232 0
M  V30 4631 H 428.119 0.280957 -2.93759 0
M  V30 4632 H 428.2 -1.32097 -2.19053 0
M  V30 4633 H 427.844 -2.38425 -4.4846 0
M  V30 4634 H 427.774 -0.759064 -5.21101 0
M  V30 4635 H 430.265 -0.940973 -3.65997 0
M  V30 4636 H 430.578 -2.52356 -7.30436 0
M  V30 4637 H 428.923 -2.26293 -6.57127 0
M  V30 4638 H 432.114 -1.24698 -4.51185 0
M  V30 4639 H 432.287 -1.96844 -6.17379 0
M  V30 4640 N 425.693 1.55336 -0.266172 0
M  V30 4641 C 426.921 2.03801 0.356756 0
M  V30 4642 C 427.336 1.14485 1.50129 0
M  V30 4643 O 426.693 0.163121 1.8177 0
M  V30 4644 C 426.744 3.51455 0.846281 0
M  V30 4645 O 426.465 4.37371 -0.252663 0
M  V30 4646 C 427.966 4.15767 1.53794 0
M  V30 4647 H 425.186 0.665906 0.0825218 0
M  V30 4648 H 427.73 2.00636 -0.39566 0
M  V30 4649 H 425.885 3.55092 1.54881 0
M  V30 4650 H 426.299 5.24358 0.122173 0
M  V30 4651 H 427.773 5.20714 1.83198 0
M  V30 4652 H 428.25 3.63404 2.46646 0
M  V30 4653 H 428.856 4.16107 0.879488 0
M  V30 4654 N 427.171 -0.0066808 1.57599 0
M  V30 4655 C 428.417 -0.693947 1.90558 0
M  V30 4656 C 428.75 -1.73792 0.866594 0
M  V30 4657 O 428.025 -1.94156 -0.115548 0
M  V30 4658 C 428.308 -1.34317 3.34112 0
M  V30 4659 C 428.161 -0.311189 4.48722 0
M  V30 4660 C 429.48 -2.27116 3.7697 0
M  V30 4661 H 426.599 -0.250803 0.693013 0
M  V30 4662 H 429.241 0.043242 1.89951 0
M  V30 4663 H 427.391 -1.9715 3.3476 0
M  V30 4664 H 429.063 0.316944 4.6021 0
M  V30 4665 H 427.306 0.367253 4.32243 0
M  V30 4666 H 427.977 -0.804366 5.46108 0
M  V30 4667 H 430.453 -1.74306 3.77831 0
M  V30 4668 H 429.329 -2.69511 4.78179 0
M  V30 4669 H 429.59 -3.14743 3.10466 0
M  V30 4670 N 428.649 -1.55105 -0.279332 0
M  V30 4671 C 429.896 -1.75412 -1.01177 0
M  V30 4672 C 430.224 -0.551728 -1.86511 0
M  V30 4673 O 429.479 0.465919 -1.90073 0
M  V30 4674 C 429.778 -3.0086 -1.92919 0
M  V30 4675 C 429.444 -4.33689 -1.23387 0
M  V30 4676 C 428.106 -4.69792 -1.04159 0
M  V30 4677 C 430.458 -5.15941 -0.738562 0
M  V30 4678 C 427.786 -5.85707 -0.341166 0
M  V30 4679 C 430.138 -6.32579 -0.0517636 0
M  V30 4680 C 428.802 -6.67326 0.152292 0
M  V30 4681 H 428.072 -0.641879 -0.370233 0
M  V30 4682 H 430.719 -1.89373 -0.284627 0
M  V30 4683 H 429.024 -2.81773 -2.72234 0
M  V30 4684 H 430.721 -3.13768 -2.49701 0
M  V30 4685 H 427.311 -4.05309 -1.39364 0
M  V30 4686 H 431.495 -4.8853 -0.874764 0
M  V30 4687 H 426.751 -6.11157 -0.172287 0
M  V30 4688 H 430.925 -6.9557 0.339828 0
M  V30 4689 H 428.552 -7.56998 0.697014 0
M  V30 4690 N 430.127 0.543554 -1.4793 0
M  V30 4691 C 431.375 1.29752 -1.54948 0
M  V30 4692 C 431.696 1.93764 -0.219242 0
M  V30 4693 O 430.966 1.80639 0.75805 0
M  V30 4694 H 429.546 0.481874 -0.570795 0
M  V30 4695 H 432.208 0.633636 -1.84312 0
M  V30 4696 H 431.304 2.08392 -2.32334 0
M  V30 4697 N 431.605 1.3629 0.791371 0
M  V30 4698 C 432.854 1.29742 1.54434 0
M  V30 4699 C 433.167 -0.121729 1.95221 0
M  V30 4700 O 434.373 -0.309579 2.69729 0
M  V30 4701 C 432.829 2.27623 2.78776 0
M  V30 4702 C 432.437 3.74963 2.45166 0
M  V30 4703 C 434.181 2.30047 3.56761 0
M  V30 4704 C 432.088 4.64626 3.65891 0
M  V30 4705 H 431.018 0.482113 0.579727 0
M  V30 4706 H 433.669 1.61642 0.868565 0
M  V30 4707 H 432.051 1.88714 3.48142 0
M  V30 4708 H 433.225 4.22596 1.83709 0
M  V30 4709 H 431.54 3.75295 1.80396 0
M  V30 4710 H 434.137 2.94247 4.46456 0
M  V30 4711 H 434.48 1.30846 3.95203 0
M  V30 4712 H 435.013 2.67563 2.94372 0
M  V30 4713 H 431.752 5.64883 3.32547 0
M  V30 4714 H 431.272 4.2171 4.26521 0
M  V30 4715 H 432.951 4.80801 4.32943 0
M  V30 4716 N 433.083 -1.0153 1.20538 0
M  V30 4717 C 434.311 -1.78746 1.04199 0
M  V30 4718 C 434.726 -1.84323 -0.408733 0
M  V30 4719 O 434.083 -1.29714 -1.28377 0
M  V30 4720 C 434.134 -3.23152 1.62035 0
M  V30 4721 O 433.855 -3.17918 3.0143 0
M  V30 4722 C 435.356 -4.16911 1.50666 0
M  V30 4723 H 432.576 -0.56208 0.366479 0
M  V30 4724 H 435.12 -1.27794 1.59653 0
M  V30 4725 H 433.275 -3.71248 1.10697 0
M  V30 4726 H 433.689 -4.08567 3.28897 0
M  V30 4727 H 435.163 -5.16072 1.95892 0
M  V30 4728 H 435.64 -4.36791 0.459363 0
M  V30 4729 H 436.246 -3.74698 2.01201 0
M  V30 4730 N 434.561 -1.01147 -1.20859 0
M  V30 4731 C 435.789 -0.716911 -1.94082 0
M  V30 4732 C 436.204 0.721568 -1.74467 0
M  V30 4733 O 435.561 1.48889 -1.05539 0
M  V30 4734 C 435.612 -1.03662 -3.46318 0
M  V30 4735 O 435.333 -2.4186 -3.65288 0
M  V30 4736 C 436.834 -0.762386 -4.36695 0
M  V30 4737 H 434.054 -0.26367 -0.617024 0
M  V30 4738 H 436.598 -1.35127 -1.53496 0
M  V30 4739 H 434.753 -0.447757 -3.84804 0
M  V30 4740 H 435.167 -2.53224 -4.59323 0
M  V30 4741 H 436.641 -1.03621 -5.42187 0
M  V30 4742 H 437.118 0.303514 -4.3815 0
M  V30 4743 H 437.724 -1.33316 -4.03865 0
M  V30 4744 N 436.039 1.36541 -0.78704 0
M  V30 4745 C 437.285 1.99599 -0.358872 0
M  V30 4746 C 437.618 1.62323 1.06606 0
M  V30 4747 O 436.893 0.876858 1.73613 0
M  V30 4748 C 437.176 3.56327 -0.519944 0
M  V30 4749 C 437.029 4.03464 -1.98839 0
M  V30 4750 C 438.348 4.4005 0.0664737 0
M  V30 4751 H 435.467 0.725107 -0.131869 0
M  V30 4752 H 438.109 1.6199 -0.992936 0
M  V30 4753 H 436.259 3.88495 0.0198321 0
M  V30 4754 H 437.931 3.81793 -2.58905 0
M  V30 4755 H 436.174 3.55092 -2.49183 0
M  V30 4756 H 436.845 5.12439 -2.05207 0
M  V30 4757 H 439.321 4.14228 -0.394267 0
M  V30 4758 H 438.197 5.48847 -0.0762682 0
M  V30 4759 H 438.458 4.26655 1.15835 0
M  V30 4760 N 437.518 0.538854 1.48102 0
M  V30 4761 C 438.448 -0.207654 2.32575 0
M  V30 4762 C 439.429 -0.926559 1.4265 0
M  V30 4763 O 440.614 -0.91061 1.71527 0
M  V30 4764 C 437.744 -1.24957 3.24042 0
M  V30 4765 C 436.698 -0.648263 4.23062 0
M  V30 4766 C 436.024 -1.79348 5.03725 0
M  V30 4767 C 437.324 0.385897 5.20872 0
M  V30 4768 H 439.018 0.497534 2.95237 0
M  V30 4769 H 436.564 0.240715 1.41974 0
M  V30 4770 H 438.517 -1.77983 3.81969 0
M  V30 4771 H 437.241 -1.98446 2.59397 0
M  V30 4772 H 435.9 -0.139452 3.66335 0
M  V30 4773 H 435.548 -2.51696 4.35498 0
M  V30 4774 H 435.248 -1.39702 5.70751 0
M  V30 4775 H 436.772 -2.32735 5.64506 0
M  V30 4776 H 438.186 -0.057607 5.73271 0
M  V30 4777 H 436.583 0.700227 5.96001 0
M  V30 4778 H 437.653 1.28848 4.67468 0
M  V30 4779 N 438.996 -1.55193 0.274407 0
M  V30 4780 C 440.224 -2.03987 -0.345943 0
M  V30 4781 C 440.639 -1.15279 -1.4952 0
M  V30 4782 O 439.996 -0.172759 -1.8168 0
M  V30 4783 C 440.047 -3.51898 -0.827631 0
M  V30 4784 O 439.768 -4.37231 0.275855 0
M  V30 4785 C 441.269 -4.16577 -1.51587 0
M  V30 4786 H 438.489 -0.666335 -0.0789892 0
M  V30 4787 H 441.033 -2.00423 0.406294 0
M  V30 4788 H 439.188 -3.55909 -1.52996 0
M  V30 4789 H 439.602 -5.24415 -0.0943638 0
M  V30 4790 H 441.076 -5.21678 -1.80433 0
M  V30 4791 H 441.553 -3.64707 -2.44716 0
M  V30 4792 H 442.159 -4.16568 -0.857409 0
M  V30 4793 N 440.474 -0.00167713 -1.576 0
M  V30 4794 C 441.407 1.02317 -2.03977 0
M  V30 4795 C 442.385 1.33381 -0.929963 0
M  V30 4796 O 443.569 1.45517 -1.19822 0
M  V30 4797 C 440.696 2.35035 -2.43878 0
M  V30 4798 C 439.742 2.19621 -3.65607 0
M  V30 4799 S 440.575 1.52068 -5.13455 0
M  V30 4800 C 441.731 2.86212 -5.56627 0
M  V30 4801 H 441.964 0.628285 -2.90585 0
M  V30 4802 H 439.497 0.209239 -1.52976 0
M  V30 4803 H 441.455 3.11345 -2.67534 0
M  V30 4804 H 440.116 2.71663 -1.57665 0
M  V30 4805 H 439.309 3.1767 -3.91282 0
M  V30 4806 H 438.911 1.51455 -3.41961 0
M  V30 4807 H 441.203 3.82509 -5.59189 0
M  V30 4808 H 442.146 2.65235 -6.56549 0
M  V30 4809 H 442.554 2.90199 -4.84195 0
M  V30 4810 N 441.952 1.55251 0.271103 0
M  V30 4811 C 443.18 1.79974 1.02064 0
M  V30 4812 C 443.595 0.574003 1.79863 0
M  V30 4813 O 442.952 -0.456962 1.76686 0
M  V30 4814 C 443.003 3.02603 1.97772 0
M  V30 4815 O 442.724 4.20443 1.23124 0
M  V30 4816 C 444.225 3.39944 2.84522 0
M  V30 4817 H 441.445 0.599489 0.301419 0
M  V30 4818 H 443.989 2.02268 0.301313 0
M  V30 4819 H 442.144 2.8243 2.65165 0
M  V30 4820 H 442.558 4.89783 1.87651 0
M  V30 4821 H 444.032 4.28915 3.47471 0
M  V30 4822 H 444.509 2.59432 3.54389 0
M  V30 4823 H 445.115 3.62383 2.22618 0
M  V30 4824 N 443.43 -0.535701 1.48216 0
M  V30 4825 C 444.658 -1.31671 1.59594 0
M  V30 4826 C 445.073 -1.87083 0.254056 0
M  V30 4827 O 444.43 -1.66112 -0.755854 0
M  V30 4828 C 444.481 -2.47158 2.63809 0
M  V30 4829 O 444.202 -1.94032 3.92789 0
M  V30 4830 C 445.703 -3.39062 2.85573 0
M  V30 4831 H 442.923 -0.400623 0.538277 0
M  V30 4832 H 445.467 -0.646827 1.94001 0
M  V30 4833 H 443.622 -3.10043 2.32276 0
M  V30 4834 H 444.036 -2.69585 4.49916 0
M  V30 4835 H 445.51 -4.16459 3.62306 0
M  V30 4836 H 445.987 -3.93941 1.94184 0
M  V30 4837 H 446.593 -2.81975 3.18387 0
M  V30 4838 N 444.908 -1.36708 -0.784132 0
M  V30 4839 C 445.838 -1.34153 -1.91116 0
M  V30 4840 C 446.819 -0.212121 -1.68772 0
M  V30 4841 O 448.004 -0.410581 -1.8981 0
M  V30 4842 C 445.134 -1.13535 -3.28218 0
M  V30 4843 C 444.088 -2.23356 -3.65097 0
M  V30 4844 C 443.414 -1.87875 -5.00607 0
M  V30 4845 C 444.714 -3.65473 -3.73131 0
M  V30 4846 H 446.408 -2.28459 -1.93512 0
M  V30 4847 H 443.954 -1.09973 -0.929618 0
M  V30 4848 H 445.907 -1.10381 -4.06687 0
M  V30 4849 H 444.631 -0.156804 -3.26223 0
M  V30 4850 H 443.29 -2.25645 -2.88929 0
M  V30 4851 H 442.938 -0.885814 -4.95139 0
M  V30 4852 H 442.638 -2.61406 -5.26252 0
M  V30 4853 H 444.162 -1.86286 -5.81489 0
M  V30 4854 H 445.576 -3.65382 -4.41779 0
M  V30 4855 H 443.973 -4.37953 -4.10265 0
M  V30 4856 H 445.043 -3.99995 -2.74102 0
M  V30 4857 N 446.386 1.0089 -1.21074 0
M  V30 4858 C 447.611 1.78727 -1.05221 0
M  V30 4859 C 448.036 1.83932 0.393795 0
M  V30 4860 O 447.394 1.28004 1.28393 0
M  V30 4861 C 447.442 3.20665 -1.64944 0
M  V30 4862 O 446.546 4.02632 -0.892273 0
M  V30 4863 H 445.887 0.550973 -0.370574 0
M  V30 4864 H 448.417 1.26847 -1.60534 0
M  V30 4865 H 448.427 3.71352 -1.69002 0
M  V30 4866 H 447.102 3.16191 -2.70177 0
M  V30 4867 H 445.679 3.61207 -0.926492 0
M  V30 4868 N 447.864 1.01787 1.20321 0
M  V30 4869 C 449.113 0.703249 1.89043 0
M  V30 4870 C 449.426 -0.770445 1.79787 0
M  V30 4871 O 450.632 -1.19767 2.43656 0
M  V30 4872 C 449.088 1.20749 3.3904 0
M  V30 4873 C 448.696 2.70817 3.56878 0
M  V30 4874 C 450.44 0.968352 4.13308 0
M  V30 4875 C 448.347 3.14716 5.00708 0
M  V30 4876 H 447.277 0.259354 0.707991 0
M  V30 4877 H 449.928 1.23072 1.36108 0
M  V30 4878 H 448.31 0.607989 3.91305 0
M  V30 4879 H 449.484 3.36327 3.14993 0
M  V30 4880 H 447.799 2.92888 2.95983 0
M  V30 4881 H 450.396 1.27173 5.19356 0
M  V30 4882 H 450.739 -0.095149 4.16191 0
M  V30 4883 H 451.272 1.53129 3.67146 0
M  V30 4884 H 448.011 4.20347 5.02979 0
M  V30 4885 H 447.531 2.53927 5.43398 0
M  V30 4886 H 449.21 3.07426 5.69296 0
M  V30 4887 N 449.342 -1.36122 0.79427 0
M  V30 4888 C 450.567 -2.03891 0.379871 0
M  V30 4889 C 450.992 -1.59488 -0.997251 0
M  V30 4890 O 450.35 -0.765652 -1.64339 0
M  V30 4891 C 450.398 -3.57687 0.457442 0
M  V30 4892 O 449.502 -4.08931 -0.5338 0
M  V30 4893 H 448.843 -0.6443 0.160541 0
M  V30 4894 H 451.373 -1.73976 1.07673 0
M  V30 4895 H 451.383 -4.06721 0.322792 0
M  V30 4896 H 450.058 -3.89357 1.46199 0
M  V30 4897 H 448.635 -3.71154 -0.360409 0
M  V30 4898 N 450.82 -0.546701 -1.47814 0
M  V30 4899 C 451.783 0.196287 -2.28358 0
M  V30 4900 C 452.783 0.852437 -1.36346 0
M  V30 4901 O 453.973 0.709913 -1.59078 0
M  V30 4902 C 451.105 1.28579 -3.15722 0
M  V30 4903 H 452.298 -0.511086 -2.95513 0
M  V30 4904 H 449.851 -0.303248 -1.5333 0
M  V30 4905 H 450.586 2.0259 -2.53235 0
M  V30 4906 H 450.371 0.820229 -3.83425 0
M  V30 4907 H 451.861 1.80793 -3.76435 0
M  V30 4908 N 452.299 1.55045 -0.282633 0
M  V30 4909 C 453.715 1.59441 0.0712997 0
M  V30 4910 C 453.915 1.2998 1.53972 0
M  V30 4911 O 452.971 1.06431 2.28973 0
M  V30 4912 C 454.284 2.99097 -0.310104 0
M  V30 4913 C 455.832 3.1194 -0.257343 0
M  V30 4914 C 456.307 4.53875 -0.613297 0
M  V30 4915 N 457.798 4.5974 -0.565134 0
M  V30 4916 C 458.533 5.67603 -0.81326 0
M  V30 4917 N 458.029 6.83582 -1.1264 0
M  V30 4918 N 459.822 5.57187 -0.741553 0
M  V30 4919 H 451.973 1.72458 -1.23984 0
M  V30 4920 H 454.236 0.804549 -0.501403 0
M  V30 4921 H 453.942 3.25516 -1.33163 0
M  V30 4922 H 453.816 3.75616 0.345366 0
M  V30 4923 H 456.203 2.85281 0.754905 0
M  V30 4924 H 456.284 2.37618 -0.947178 0
M  V30 4925 H 455.928 4.81261 -1.62327 0
M  V30 4926 H 455.858 5.26508 0.09841 0
M  V30 4927 H 458.349 3.76427 -0.333294 0
M  V30 4928 H 458.662 7.6175 -1.30219 0
M  V30 4929 H 457.007 6.85179 -1.16425 0
M  V30 4930 H 460.198 4.65457 -0.496705 0
M  V30 4931 H 460.371 6.41171 -0.938306 0
M  V30 4932 N 453.777 0.010035 1.57597 0
M  V30 4933 C 454.727 -0.986858 2.05536 0
M  V30 4934 C 455.711 -1.29711 0.952042 0
M  V30 4935 O 456.903 -1.28641 1.21575 0
M  V30 4936 C 454.032 -2.2756 2.57043 0
M  V30 4937 C 453.118 -1.99455 3.74271 0
M  V30 4938 N 453.509 -1.41546 4.85591 0
M  V30 4939 C 451.807 -2.29547 3.82393 0
M  V30 4940 C 452.508 -1.3014 5.66956 0
M  V30 4941 N 451.484 -1.79044 5.13268 0
M  V30 4942 H 455.286 -0.533778 2.89012 0
M  V30 4943 H 452.8 -0.195432 1.6122 0
M  V30 4944 H 454.797 -2.99829 2.89669 0
M  V30 4945 H 453.457 -2.73512 1.7499 0
M  V30 4946 H 454.468 -1.09294 5.06236 0
M  V30 4947 H 451.145 -2.78304 3.11213 0
M  V30 4948 H 452.535 -0.855237 6.66435 0
M  V30 4949 N 455.255 -1.55392 -0.262866 0
M  V30 4950 C 456.48 -1.80847 -1.01533 0
M  V30 4951 C 456.905 -0.584946 -1.78774 0
M  V30 4952 O 456.263 0.465701 -1.75217 0
M  V30 4953 C 456.311 -3.03866 -1.94159 0
M  V30 4954 O 455.415 -2.79662 -3.03089 0
M  V30 4955 H 454.756 -0.597441 -0.289759 0
M  V30 4956 H 457.286 -2.02553 -0.288698 0
M  V30 4957 H 457.296 -3.32872 -2.35924 0
M  V30 4958 H 455.971 -3.92564 -1.37354 0
M  V30 4959 H 454.548 -2.61781 -2.65566 0
M  V30 4960 N 456.733 0.527833 -1.48498 0
M  V30 4961 C 457.663 1.64136 -1.66077 0
M  V30 4962 C 458.644 1.62286 -0.509625 0
M  V30 4963 O 459.829 1.79449 -0.742413 0
M  V30 4964 C 456.959 3.02717 -1.70234 0
M  V30 4965 C 455.913 3.19426 -2.8487 0
M  V30 4966 C 455.239 4.5909 -2.74118 0
M  V30 4967 C 456.539 3.01993 -4.26142 0
M  V30 4968 H 458.233 1.4968 -2.593 0
M  V30 4969 H 455.779 0.718654 -1.24785 0
M  V30 4970 H 457.732 3.80491 -1.8112 0
M  V30 4971 H 456.456 3.18201 -0.735911 0
M  V30 4972 H 455.115 2.4407 -2.73542 0
M  V30 4973 H 454.763 4.71413 -1.7544 0
M  V30 4974 H 454.463 4.71214 -3.51042 0
M  V30 4975 H 455.987 5.3896 -2.86974 0
M  V30 4976 H 457.401 3.69558 -4.38292 0
M  V30 4977 H 455.798 3.2561 -5.04082 0
M  V30 4978 H 456.868 1.98396 -4.42456 0
M  V30 4979 N 458.211 1.37122 0.776871 0
M  V30 4980 C 459.622 1.28667 1.35284 0
M  V30 4981 C 459.973 -0.0680035 1.96082 0
M  V30 4982 O 459.098 -0.969743 1.93455 0
M  V30 4983 C 459.693 2.32997 2.45963 0
M  V30 4984 C 458.252 2.28191 2.99342 0
M  V30 4985 C 457.399 2.17101 1.72517 0
M  V30 4986 H 460.35 1.47819 0.577527 0
M  V30 4987 H 460.371 1.97366 3.2531 0
M  V30 4988 H 459.883 3.3158 2.01684 0
M  V30 4989 H 457.984 1.33115 3.4801 0
M  V30 4990 H 458.097 3.21397 3.55304 0
M  V30 4991 H 456.461 1.63562 1.95242 0
M  V30 4992 H 457.244 3.17591 1.30348 0
M  V30 4993 N 459.689 -1.00246 1.21608 0
M  V30 4994 C 460.636 -2.09073 0.977613 0
M  V30 4995 C 461.606 -1.65815 -0.097297 0
M  V30 4996 O 462.791 -1.90734 0.0503445 0
M  V30 4997 C 459.931 -3.40671 0.551133 0
M  V30 4998 C 459.044 -3.97326 1.69576 0
M  V30 4999 C 458.179 -5.17043 1.2182 0
M  V30 5000 C 457.218 -5.65813 2.335 0
M  V30 5001 N 456.355 -6.76778 1.86859 0
M  V30 5002 H 461.195 -2.28806 1.90924 0
M  V30 5003 H 458.732 -1.12186 0.951452 0
M  V30 5004 H 460.69 -4.16225 0.285097 0
M  V30 5005 H 459.32 -3.20967 -0.343489 0
M  V30 5006 H 458.372 -3.18734 2.07637 0
M  V30 5007 H 459.684 -4.29511 2.53617 0
M  V30 5008 H 458.838 -5.99852 0.908975 0
M  V30 5009 H 457.577 -4.86458 0.347869 0
M  V30 5010 H 456.582 -4.81599 2.65222 0
M  V30 5011 H 457.807 -5.98427 3.21033 0
M  V30 5012 H 455.753 -6.47994 1.02174 0
M  V30 5013 H 455.67 -7.08231 2.64471 0
M  V30 5014 H 456.938 -7.63116 1.58978 0
M  V30 5015 N 461.167 -1.02423 -1.1978 0
M  V30 5016 C 462.413 -0.719051 -1.89625 0
M  V30 5017 C 462.746 0.750083 -1.7913 0
M  V30 5018 O 462.021 1.54574 -1.18056 0
M  V30 5019 C 462.304 -1.16499 -3.40735 0
M  V30 5020 C 462.157 -2.695 -3.60125 0
M  V30 5021 C 463.476 -0.742166 -4.33797 0
M  V30 5022 H 460.595 -0.26269 -0.688595 0
M  V30 5023 H 463.237 -1.27333 -1.41018 0
M  V30 5024 H 461.387 -0.69341 -3.82262 0
M  V30 5025 H 463.059 -3.24569 -3.278 0
M  V30 5026 H 461.302 -3.10113 -3.03336 0
M  V30 5027 H 461.973 -2.95757 -4.66081 0
M  V30 5028 H 464.449 -1.1477 -3.99959 0
M  V30 5029 H 463.325 -1.08213 -5.38127 0
M  V30 5030 H 463.586 0.355747 -4.40666 0
M  V30 5031 N 462.645 1.35699 -0.801477 0
M  V30 5032 C 463.87 2.03687 -0.390678 0
M  V30 5033 C 464.295 1.60015 0.988778 0
M  V30 5034 O 463.653 0.774357 1.63931 0
M  V30 5035 C 463.701 3.57439 -0.476404 0
M  V30 5036 O 462.805 4.09208 0.512106 0
M  V30 5037 H 462.146 0.64344 -0.163956 0
M  V30 5038 H 464.676 1.73403 -1.08594 0
M  V30 5039 H 464.686 4.06544 -0.344357 0
M  V30 5040 H 463.361 3.88576 -1.48262 0
M  V30 5041 H 461.938 3.7134 0.340721 0
M  V30 5042 N 464.123 0.554532 1.47522 0
M  V30 5043 C 465.353 0.0342074 2.06572 0
M  V30 5044 C 465.761 -1.26375 1.40805 0
M  V30 5045 O 465.104 -1.7683 0.49769 0
M  V30 5046 C 465.166 -0.235096 3.5873 0
M  V30 5047 C 464.83 0.973024 4.46521 0
M  V30 5048 C 465.827 1.8779 4.848 0
M  V30 5049 C 463.512 1.18694 4.88075 0
M  V30 5050 C 465.506 2.98039 5.63428 0
M  V30 5051 C 463.193 2.29254 5.66468 0
M  V30 5052 C 464.191 3.18757 6.04055 0
M  V30 5053 O 463.879 4.27401 6.8087 0
M  V30 5054 H 463.611 0.041587 0.67472 0
M  V30 5055 H 466.165 0.766748 1.90552 0
M  V30 5056 H 464.395 -1.02191 3.72953 0
M  V30 5057 H 466.084 -0.700477 3.9981 0
M  V30 5058 H 466.85 1.72467 4.53299 0
M  V30 5059 H 462.729 0.49947 4.58286 0
M  V30 5060 H 466.273 3.67926 5.92685 0
M  V30 5061 H 462.17 2.4455 5.97382 0
M  V30 5062 H 462.938 4.25415 6.9926 0
M  V30 5063 N 465.601 -1.54893 0.290851 0
M  V30 5064 C 466.564 -2.21824 -0.576784 0
M  V30 5065 C 467.564 -1.20104 -1.06919 0
M  V30 5066 O 468.754 -1.44906 -0.966843 0
M  V30 5067 C 465.886 -2.89662 -1.79747 0
M  V30 5068 H 467.079 -2.99899 0.00784051 0
M  V30 5069 H 464.632 -1.56245 0.0415934 0
M  V30 5070 H 465.367 -2.15639 -2.42219 0
M  V30 5071 H 465.152 -3.64219 -1.45214 0
M  V30 5072 H 466.642 -3.4075 -2.4141 0
M  V30 5073 N 467.08 -0.0183926 -1.57589 0
M  V30 5074 C 468.308 0.673046 -1.95647 0
M  V30 5075 C 468.723 1.66275 -0.894312 0
M  V30 5076 O 468.08 1.82072 0.124975 0
M  V30 5077 C 468.131 1.38884 -3.33756 0
M  V30 5078 O 467.852 0.438806 -4.35897 0
M  V30 5079 C 469.353 2.1731 -3.86383 0
M  V30 5080 H 466.573 0.186292 -0.644621 0
M  V30 5081 H 469.117 -0.0749748 -2.04363 0
M  V30 5082 H 467.272 2.08835 -3.26293 0
M  V30 5083 H 467.686 0.945869 -5.15901 0
M  V30 5084 H 469.16 2.62863 -4.85394 0
M  V30 5085 H 469.637 3.00764 -3.20059 0
M  V30 5086 H 470.243 1.52339 -3.97081 0
M  V30 5087 N 468.558 1.5553 0.254621 0
M  V30 5088 C 469.521 1.88872 1.29846 0
M  V30 5089 C 470.521 0.764591 1.41459 0
M  V30 5090 O 471.711 1.03265 1.40293 0
M  V30 5091 C 468.843 2.11032 2.67728 0
M  V30 5092 H 470.036 2.82201 1.01502 0
M  V30 5093 H 467.589 1.48303 0.493556 0
M  V30 5094 H 468.324 1.20146 3.01223 0
M  V30 5095 H 468.109 2.92895 2.60682 0
M  V30 5096 H 469.599 2.38038 3.43115 0
M  V30 5097 N 470.036 -0.519951 1.48776 0
M  V30 5098 C 470.969 -1.64053 1.58625 0
M  V30 5099 C 471.947 -1.5664 0.43618 0
M  V30 5100 O 473.131 -1.76969 0.649159 0
M  V30 5101 C 470.258 -3.02497 1.52359 0
M  V30 5102 C 469.304 -3.28235 2.72331 0
M  V30 5103 S 470.137 -3.13414 4.34203 0
M  V30 5104 C 471.293 -4.54287 4.30551 0
M  V30 5105 H 471.526 -1.5545 2.53422 0
M  V30 5106 H 469.059 -0.703681 1.37433 0
M  V30 5107 H 471.017 -3.82336 1.4943 0
M  V30 5108 H 469.678 -3.08531 0.588824 0
M  V30 5109 H 468.871 -4.29256 2.64113 0
M  V30 5110 H 468.473 -2.56085 2.72574 0
M  V30 5111 H 470.765 -5.46006 4.01103 0
M  V30 5112 H 471.708 -4.67558 5.31785 0
M  V30 5113 H 472.116 -4.34079 3.60881 0
M  V30 5114 N 471.514 -1.37532 -0.769588 0
M  V30 5115 C 472.791 -1.23392 -1.51768 0
M  V30 5116 C 473.171 0.17157 -2.10402 0
M  V30 5117 O 472.519 1.17943 -1.95708 0
M  V30 5118 C 472.729 -2.33163 -2.59685 0
M  V30 5119 C 474.077 -2.70809 -3.27028 0
M  V30 5120 O 475.101 -2.32355 -2.69981 0
M  V30 5121 O 473.96 -3.37066 -4.30173 0
M  V30 5122 H 471.054 -0.481617 -0.67229 0
M  V30 5123 H 473.6 -1.49318 -0.806368 0
M  V30 5124 H 472.372 -3.27273 -2.14494 0
M  V30 5125 H 471.995 -2.08713 -3.38415 0
M  V30 5126 N 472.992 0.995999 -1.22138 0
M  V30 5127 C 474.238 1.7386 -1.05567 0
M  V30 5128 C 474.593 1.8808 0.405418 0
M  V30 5129 O 473.886 1.41062 1.29661 0
M  V30 5130 C 474.08 3.14553 -1.6968 0
M  V30 5131 C 473.909 3.14053 -3.21871 0
M  V30 5132 C 472.679 3.20121 -3.90961 0
M  V30 5133 C 474.877 2.98451 -4.18845 0
M  V30 5134 N 472.859 3.09342 -5.30265 0
M  V30 5135 C 474.23 2.95667 -5.4496 0
M  V30 5136 C 476.285 2.8282 -4.09777 0
M  V30 5137 C 474.988 2.78852 -6.63049 0
M  V30 5138 C 477.014 2.67364 -5.27513 0
M  V30 5139 C 476.376 2.65264 -6.52544 0
M  V30 5140 H 472.475 0.645989 -0.440706 0
M  V30 5141 H 475.059 1.1831 -1.54631 0
M  V30 5142 H 473.23 3.68353 -1.2317 0
M  V30 5143 H 474.962 3.77358 -1.4623 0
M  V30 5144 H 471.717 3.27679 -3.4194 0
M  V30 5145 H 472.141 3.0727 -6.03253 0
M  V30 5146 H 476.783 2.83243 -3.139 0
M  V30 5147 H 474.501 2.77175 -7.59078 0
M  V30 5148 H 478.087 2.56256 -5.22326 0
M  V30 5149 H 476.967 2.5345 -7.42114 0
M  V30 5150 N 474.47 1.03057 1.19235 0
M  V30 5151 C 475.717 0.728019 1.88961 0
M  V30 5152 C 476.045 -0.743515 1.79728 0
M  V30 5153 O 475.3 -1.55729 1.1852 0
M  V30 5154 C 475.599 1.1268 3.39172 0
M  V30 5155 C 475.265 2.5969 3.68608 0
M  V30 5156 C 473.927 2.99854 3.76352 0
M  V30 5157 C 476.279 3.54793 3.81801 0
M  V30 5158 C 473.607 4.34031 3.94758 0
M  V30 5159 C 475.959 4.88675 4.0172 0
M  V30 5160 C 474.623 5.28526 4.07697 0
M  V30 5161 H 473.893 0.266401 0.691456 0
M  V30 5162 H 476.54 1.29373 1.41191 0
M  V30 5163 H 474.845 0.479722 3.88852 0
M  V30 5164 H 476.542 0.870203 3.91444 0
M  V30 5165 H 473.132 2.27575 3.63191 0
M  V30 5166 H 477.316 3.24914 3.7516 0
M  V30 5167 H 472.572 4.6444 3.97625 0
M  V30 5168 H 476.746 5.6228 4.1087 0
M  V30 5169 H 474.373 6.32506 4.21712 0
M  V30 5170 N 475.948 -1.35272 0.808662 0
M  V30 5171 C 477.197 -1.97963 0.386483 0
M  V30 5172 C 477.51 -1.64866 -1.05255 0
M  V30 5173 O 478.716 -2.20937 -1.57794 0
M  V30 5174 C 477.172 -3.54162 0.640096 0
M  V30 5175 C 476.78 -3.96166 2.0918 0
M  V30 5176 C 478.524 -4.23553 0.283376 0
M  V30 5177 C 476.431 -5.4522 2.29106 0
M  V30 5178 H 475.361 -0.740742 0.140774 0
M  V30 5179 H 478.012 -1.5431 0.993012 0
M  V30 5180 H 476.394 -3.95983 -0.0364117 0
M  V30 5181 H 477.568 -3.65491 2.80629 0
M  V30 5182 H 475.883 -3.3967 2.40859 0
M  V30 5183 H 478.48 -5.33124 0.410273 0
M  V30 5184 H 478.823 -4.09105 -0.770659 0
M  V30 5185 H 479.356 -3.8716 0.913884 0
M  V30 5186 H 476.095 -5.64638 3.32962 0
M  V30 5187 H 475.615 -5.77457 1.62184 0
M  V30 5188 H 477.294 -6.1171 2.1076 0
M  V30 5189 N 477.426 -0.562348 -1.47226 0
M  V30 5190 C 478.389 0.172056 -2.28553 0
M  V30 5191 C 479.389 0.837928 -1.37242 0
M  V30 5192 O 480.579 0.693001 -1.59822 0
M  V30 5193 C 477.711 1.25223 -3.17068 0
M  V30 5194 H 478.904 -0.542401 -2.94954 0
M  V30 5195 H 476.457 -0.319493 -1.53 0
M  V30 5196 H 477.192 1.99892 -2.55369 0
M  V30 5197 H 476.977 0.779515 -3.84273 0
M  V30 5198 H 478.467 1.76791 -3.78332 0
M  V30 5199 N 478.904 1.54736 -0.299062 0
M  V30 5200 C 480.15 2.00397 0.311244 0
M  V30 5201 C 480.483 1.18716 1.53688 0
M  V30 5202 O 479.758 0.263154 1.92712 0
M  V30 5203 C 480.041 3.53817 0.669761 0
M  V30 5204 C 479.894 4.46239 -0.564882 0
M  V30 5205 C 481.213 4.13856 1.49702 0
M  V30 5206 H 478.332 0.728493 0.111653 0
M  V30 5207 H 480.974 1.85506 -0.410774 0
M  V30 5208 H 479.124 3.66637 1.28491 0
M  V30 5209 H 480.796 4.45328 -1.20337 0
M  V30 5210 H 479.039 4.16916 -1.19849 0
M  V30 5211 H 479.71 5.5134 -0.269918 0
M  V30 5212 H 482.186 4.04461 0.977284 0
M  V30 5213 H 481.062 5.21365 1.71666 0
M  V30 5214 H 481.323 3.65608 2.48563 0
M  V30 5215 N 480.382 0.0267497 1.57577 0
M  V30 5216 C 481.622 -0.65659 1.93567 0
M  V30 5217 C 481.986 -1.69429 0.903213 0
M  V30 5218 O 483.187 -2.42994 1.14923 0
M  V30 5219 C 481.458 -1.25912 3.34486 0
M  V30 5220 S 483.017 -1.96386 3.924 0
M  V30 5221 H 479.835 -0.216237 0.67732 0
M  V30 5222 H 482.437 0.0898475 1.95293 0
M  V30 5223 H 481.141 -0.491405 4.07447 0
M  V30 5224 H 480.672 -2.04291 3.36198 0
M  V30 5225 H 482.687 -3.24202 3.75643 0
M  V30 5226 N 481.861 -1.55662 -0.24637 0
M  V30 5227 C 483.108 -1.77519 -0.974335 0
M  V30 5228 C 483.436 -0.591165 -1.85298 0
M  V30 5229 O 482.691 0.425497 -1.91018 0
M  V30 5230 C 482.99 -3.04885 -1.86494 0
M  V30 5231 C 482.656 -4.36209 -1.14161 0
M  V30 5232 C 481.318 -4.71896 -0.941701 0
M  V30 5233 C 483.67 -5.17391 -0.628957 0
M  V30 5234 C 480.998 -5.86299 -0.216852 0
M  V30 5235 C 483.35 -6.32546 0.0824273 0
M  V30 5236 C 482.014 -6.66853 0.293807 0
M  V30 5237 H 481.284 -0.649588 -0.356535 0
M  V30 5238 H 483.931 -1.89934 -0.244394 0
M  V30 5239 H 482.236 -2.87484 -2.66196 0
M  V30 5240 H 483.933 -3.18994 -2.42989 0
M  V30 5241 H 480.523 -4.08174 -1.30736 0
M  V30 5242 H 484.707 -4.90276 -0.770943 0
M  V30 5243 H 479.963 -6.11385 -0.0426124 0
M  V30 5244 H 484.137 -6.94693 0.487292 0
M  V30 5245 H 481.764 -7.55349 0.857428 0
M  V30 5246 N 483.339 0.512053 -1.4905 0
M  V30 5247 C 484.302 1.59704 -1.64399 0
M  V30 5248 C 485.302 1.52285 -0.516317 0
M  V30 5249 O 486.492 1.55635 -0.782527 0
M  V30 5250 C 483.624 2.9935 -1.63102 0
M  V30 5251 H 484.817 1.47428 -2.61161 0
M  V30 5252 H 482.37 0.735469 -1.37915 0
M  V30 5253 H 483.105 3.17116 -0.678836 0
M  V30 5254 H 482.89 3.06144 -2.44986 0
M  V30 5255 H 484.38 3.782 -1.77072 0
M  V30 5256 N 484.817 1.37938 0.762283 0
M  V30 5257 C 486.064 1.33668 1.52115 0
M  V30 5258 C 486.392 -0.0759538 1.94352 0
M  V30 5259 O 485.647 -1.05121 1.6507 0
M  V30 5260 C 485.946 2.23042 2.79261 0
M  V30 5261 C 485.612 3.71159 2.56031 0
M  V30 5262 C 484.274 4.11523 2.49404 0
M  V30 5263 C 486.626 4.64955 2.35513 0
M  V30 5264 C 483.954 5.43784 2.20263 0
M  V30 5265 C 486.306 5.97464 2.07894 0
M  V30 5266 C 484.97 6.36922 1.99718 0
M  V30 5267 H 484.24 0.489127 0.556629 0
M  V30 5268 H 486.887 1.70224 0.877262 0
M  V30 5269 H 485.192 1.79512 3.48256 0
M  V30 5270 H 486.889 2.17047 3.37182 0
M  V30 5271 H 483.479 3.39153 2.62056 0
M  V30 5272 H 487.663 4.34623 2.39617 0
M  V30 5273 H 482.919 5.73307 2.12435 0
M  V30 5274 H 487.093 6.6969 1.91019 0
M  V30 5275 H 484.72 7.39331 1.76902 0
M  V30 5276 N 486.295 -0.989507 1.22664 0
M  V30 5277 C 487.541 -1.7321 1.05481 0
M  V30 5278 C 487.874 -1.89852 -0.408635 0
M  V30 5279 O 487.149 -1.44416 -1.30285 0
M  V30 5280 C 487.432 -3.1357 1.77047 0
M  V30 5281 C 487.285 -3.04555 3.31008 0
M  V30 5282 C 488.604 -4.12812 1.5256 0
M  V30 5283 H 485.723 -0.628697 0.384589 0
M  V30 5284 H 488.365 -1.15258 1.51049 0
M  V30 5285 H 486.515 -3.63046 1.3831 0
M  V30 5286 H 488.187 -2.62674 3.7921 0
M  V30 5287 H 486.43 -2.41278 3.6051 0
M  V30 5288 H 487.101 -4.03894 3.76263 0
M  V30 5289 H 489.577 -3.72106 1.86215 0
M  V30 5290 H 488.453 -5.09132 2.05124 0
M  V30 5291 H 488.714 -4.39711 0.458936 0
M  V30 5292 N 487.773 -1.03688 -1.18687 0
M  V30 5293 C 489.02 -0.73803 -1.88572 0
M  V30 5294 C 489.348 0.733973 -1.8012 0
M  V30 5295 O 488.603 1.55098 -1.19344 0
M  V30 5296 C 488.902 -1.14477 -3.3857 0
M  V30 5297 C 488.568 -2.61641 -3.67226 0
M  V30 5298 C 487.23 -3.01846 -3.74757 0
M  V30 5299 C 489.582 -3.56812 -3.79914 0
M  V30 5300 C 486.91 -4.36118 -3.92451 0
M  V30 5301 C 489.262 -4.90799 -3.99123 0
M  V30 5302 C 487.926 -5.3068 -4.04888 0
M  V30 5303 H 487.196 -0.270064 -0.690034 0
M  V30 5304 H 489.843 -1.3012 -1.40503 0
M  V30 5305 H 488.148 -0.500337 -3.88592 0
M  V30 5306 H 489.845 -0.89095 -3.90977 0
M  V30 5307 H 486.435 -2.29498 -3.61979 0
M  V30 5308 H 490.619 -3.26899 -3.73431 0
M  V30 5309 H 485.875 -4.66542 -3.95157 0
M  V30 5310 H 490.049 -5.64451 -4.07882 0
M  V30 5311 H 487.676 -6.34733 -4.18351 0
M  V30 5312 N 489.251 1.34841 -0.815825 0
M  V30 5313 C 490.476 2.03261 -0.41226 0
M  V30 5314 C 490.901 1.61055 0.971751 0
M  V30 5315 O 490.259 0.7917 1.63101 0
M  V30 5316 C 490.307 3.56914 -0.514289 0
M  V30 5317 O 489.411 4.09728 0.468675 0
M  V30 5318 H 488.752 0.641664 -0.170771 0
M  V30 5319 H 491.282 1.72241 -1.10427 0
M  V30 5320 H 491.292 4.06156 -0.387457 0
M  V30 5321 H 489.967 3.86982 -1.52375 0
M  V30 5322 H 488.544 3.71681 0.301316 0
M  V30 5323 N 490.729 0.570148 1.46925 0
M  V30 5324 C 491.692 -0.159933 2.28641 0
M  V30 5325 C 492.692 -0.830638 1.37685 0
M  V30 5326 O 493.882 -0.684516 1.60187 0
M  V30 5327 C 491.014 -1.2354 3.17727 0
M  V30 5328 H 492.207 0.558035 2.94662 0
M  V30 5329 H 489.76 0.327603 1.52828 0
M  V30 5330 H 490.495 -1.98535 2.56426 0
M  V30 5331 H 490.28 -0.759125 3.84681 0
M  V30 5332 H 491.77 -1.74782 3.79264 0
M  V30 5333 N 492.207 -1.54576 0.307264 0
M  V30 5334 C 493.137 -2.26708 -0.55907 0
M  V30 5335 C 494.118 -1.26893 -1.1328 0
M  V30 5336 O 495.303 -1.55677 -1.16097 0
M  V30 5337 C 492.433 -3.01259 -1.72801 0
M  V30 5338 C 491.387 -4.08275 -1.28435 0
M  V30 5339 C 490.713 -4.70575 -2.53895 0
M  V30 5340 C 492.013 -5.2068 -0.411038 0
M  V30 5341 H 493.707 -2.9937 0.042576 0
M  V30 5342 H 491.253 -1.43983 0.0219173 0
M  V30 5343 H 493.206 -3.50444 -2.34023 0
M  V30 5344 H 491.93 -2.26187 -2.356 0
M  V30 5345 H 490.589 -3.59949 -0.695161 0
M  V30 5346 H 490.237 -3.92136 -3.15021 0
M  V30 5347 H 489.937 -5.42854 -2.24908 0
M  V30 5348 H 491.461 -5.22527 -3.15908 0
M  V30 5349 H 492.875 -5.65721 -0.929097 0
M  V30 5350 H 491.272 -5.99716 -0.214664 0
M  V30 5351 H 492.342 -4.81629 0.562287 0
M  V30 5352 N 493.685 -0.035106 -1.57561 0
M  V30 5353 C 494.934 0.641604 -1.91223 0
M  V30 5354 C 495.247 1.72944 -0.913761 0
M  V30 5355 O 496.453 2.46321 -1.14185 0
M  V30 5356 C 494.909 1.19249 -3.3957 0
M  V30 5357 C 494.517 0.137616 -4.47789 0
M  V30 5358 C 496.261 1.84537 -3.82291 0
M  V30 5359 C 494.168 0.700478 -5.87237 0
M  V30 5360 H 493.098 0.243417 -0.713627 0
M  V30 5361 H 495.749 -0.101382 -1.8322 0
M  V30 5362 H 494.131 1.98728 -3.42525 0
M  V30 5363 H 495.305 -0.635153 -4.56402 0
M  V30 5364 H 493.62 -0.416855 -4.14308 0
M  V30 5365 H 496.217 2.27616 -4.83834 0
M  V30 5366 H 496.56 2.69054 -3.17672 0
M  V30 5367 H 497.093 1.11739 -3.81784 0
M  V30 5368 H 493.832 -0.106693 -6.55413 0
M  V30 5369 H 493.352 1.4416 -5.82218 0
M  V30 5370 H 495.031 1.18837 -6.35993 0
M  V30 5371 N 495.163 1.55791 0.238111 0
M  V30 5372 C 496.073 1.94196 1.31625 0
M  V30 5373 C 497.089 0.843545 1.52185 0
M  V30 5374 O 498.265 1.1457 1.65637 0
M  V30 5375 C 495.33 2.2365 2.64918 0
M  V30 5376 C 494.391 3.46971 2.52804 0
M  V30 5377 C 493.624 3.7501 3.79741 0
M  V30 5378 O 493.847 3.04982 4.82019 0
M  V30 5379 O 492.781 4.68525 3.77846 0
M  V30 5380 H 496.607 2.86044 1.02043 0
M  V30 5381 H 494.192 1.42786 0.439603 0
M  V30 5382 H 496.074 2.43863 3.4367 0
M  V30 5383 H 494.749 1.34979 2.94215 0
M  V30 5384 H 493.656 3.32055 1.72309 0
M  V30 5385 H 494.989 4.35971 2.28451 0
M  V30 5386 N 496.642 -0.504142 1.49319 0
M  V30 5387 C 497.889 -1.25846 1.58647 0
M  V30 5388 C 498.217 -1.92592 0.27177 0
M  V30 5389 O 497.472 -1.81167 -0.74007 0
M  V30 5390 C 497.771 -2.35021 2.69258 0
M  V30 5391 C 497.437 -1.85755 4.1086 0
M  V30 5392 C 496.099 -1.72038 4.49395 0
M  V30 5393 C 498.451 -1.48844 4.99495 0
M  V30 5394 C 495.779 -1.19783 5.74342 0
M  V30 5395 C 498.131 -0.980422 6.24956 0
M  V30 5396 C 496.795 -0.829622 6.62324 0
M  V30 5397 H 496.065 -0.460505 0.580531 0
M  V30 5398 H 498.712 -0.559716 1.83138 0
M  V30 5399 H 497.017 -3.10672 2.38726 0
M  V30 5400 H 498.714 -2.93083 2.73685 0
M  V30 5401 H 495.304 -1.9739 3.80441 0
M  V30 5402 H 499.488 -1.5829 4.70381 0
M  V30 5403 H 494.744 -1.06817 6.01997 0
M  V30 5404 H 498.918 -0.685608 6.93017 0
M  V30 5405 H 496.545 -0.42253 7.59025 0
M  V30 5406 N 498.12 -1.38341 -0.754957 0
M  V30 5407 C 499.083 -1.35262 -1.85032 0
M  V30 5408 C 500.083 -0.253393 -1.58791 0
M  V30 5409 O 501.273 -0.510205 -1.66561 0
M  V30 5410 C 498.405 -1.10544 -3.22479 0
M  V30 5411 H 499.598 -2.32712 -1.8917 0
M  V30 5412 H 497.151 -1.23614 -0.956515 0
M  V30 5413 H 497.886 -0.136952 -3.24011 0
M  V30 5414 H 497.671 -1.90127 -3.4292 0
M  V30 5415 H 499.161 -1.11082 -4.02555 0
M  V30 5416 N 499.598 0.982988 -1.23187 0
M  V30 5417 C 500.561 2.05649 -1.01198 0
M  V30 5418 C 501.561 1.6078 0.0252464 0
M  V30 5419 O 502.751 1.72878 -0.214243 0
M  V30 5420 C 499.883 3.36744 -0.530656 0
M  V30 5421 H 501.076 2.2659 -1.96461 0
M  V30 5422 H 498.629 1.15602 -1.05195 0
M  V30 5423 H 499.364 3.21492 0.425873 0
M  V30 5424 H 499.149 3.7065 -1.2791 0
M  V30 5425 H 500.639 4.15705 -0.397366 0
M  V30 5426 N 501.076 1.04316 1.18135 0
M  V30 5427 C 502.322 0.749128 1.88457 0
M  V30 5428 C 502.655 -0.72149 1.803 0
M  V30 5429 O 501.93 -1.52676 1.205 0
M  V30 5430 C 502.213 1.21905 3.38838 0
M  V30 5431 C 502.066 2.75195 3.55792 0
M  V30 5432 C 503.385 0.811085 4.32561 0
M  V30 5433 H 500.504 0.273611 0.684329 0
M  V30 5434 H 503.146 1.29561 1.38975 0
M  V30 5435 H 501.296 0.754137 3.8111 0
M  V30 5436 H 502.968 3.29743 3.22595 0
M  V30 5437 H 501.211 3.14899 2.98364 0
M  V30 5438 H 501.882 3.03135 4.61317 0
M  V30 5439 H 504.358 1.21118 3.98082 0
M  V30 5440 H 503.234 1.16761 5.36338 0
M  V30 5441 H 503.495 -0.285596 4.41177 0
M  V30 5442 N 502.554 -1.34406 0.822964 0
M  V30 5443 C 503.502 -2.31428 0.233165 0
M  V30 5444 C 504.496 -1.57404 -0.626118 0
M  V30 5445 O 505.702 -1.72402 -0.517453 0
M  V30 5446 H 502.077 -0.749863 0.0566557 0
M  V30 5447 H 504.048 -2.78699 1.06628 0
M  V30 5448 C 502.797 -3.42653 -0.590264 0
M  V30 5449 H 502.12 -3.99753 0.0616129 0
M  V30 5450 H 503.56 -4.12778 -0.969054 0
M  V30 5451 C 502.019 -2.87112 -1.76262 0
M  V30 5452 O 502.549 -2.81995 -2.8608 0
M  V30 5453 N 500.755 -2.43934 -1.57938 0
M  V30 5454 H 500.302 -2.48296 -0.686078 0
M  V30 5455 H 500.26 -2.07123 -2.36532 0
M  V30 5456 N 504.032 -0.577932 -1.46621 0
M  V30 5457 C 505.262 -0.0670668 -2.06491 0
M  V30 5458 C 505.67 1.24119 -1.42798 0
M  V30 5459 O 505.013 1.76016 -0.525759 0
M  V30 5460 C 505.075 0.177995 -3.59059 0
M  V30 5461 C 504.739 -1.04394 -4.44917 0
M  V30 5462 C 505.736 -1.95479 -4.81751 0
M  V30 5463 C 503.421 -1.26444 -4.86125 0
M  V30 5464 C 505.415 -3.06965 -5.58615 0
M  V30 5465 C 503.102 -2.38237 -5.62749 0
M  V30 5466 C 504.1 -3.28327 -5.98908 0
M  V30 5467 O 503.788 -4.38179 -6.73984 0
M  V30 5468 H 503.52 -0.0523159 -0.673973 0
M  V30 5469 H 506.074 -0.796966 -1.89308 0
M  V30 5470 H 504.304 0.962451 -3.74531 0
M  V30 5471 H 505.993 0.636782 -4.00874 0
M  V30 5472 H 506.759 -1.79657 -4.50498 0
M  V30 5473 H 502.638 -0.572316 -4.57434 0
M  V30 5474 H 506.182 -3.77309 -5.86757 0
M  V30 5475 H 502.079 -2.54023 -5.93416 0
M  V30 5476 H 502.847 -4.36486 -6.92403 0
M  V30 5477 N 505.51 1.54411 -0.315457 0
M  V30 5478 C 506.757 2.00419 0.289543 0
M  V30 5479 C 507.085 1.20373 1.52776 0
M  V30 5480 O 506.34 0.271769 1.93804 0
M  V30 5481 C 506.639 3.50936 0.676652 0
M  V30 5482 C 506.305 4.48532 -0.461472 0
M  V30 5483 C 504.967 4.74936 -0.773879 0
M  V30 5484 C 507.319 5.06567 -1.22637 0
M  V30 5485 C 504.647 5.56634 -1.85405 0
M  V30 5486 C 506.999 5.89441 -2.29657 0
M  V30 5487 C 505.663 6.1415 -2.61488 0
M  V30 5488 H 504.933 0.733386 0.105951 0
M  V30 5489 H 507.58 1.86434 -0.437554 0
M  V30 5490 H 505.885 3.62606 1.48405 0
M  V30 5491 H 507.582 3.83971 1.15618 0
M  V30 5492 H 504.172 4.28096 -0.207893 0
M  V30 5493 H 508.356 4.86157 -0.998271 0
M  V30 5494 H 503.612 5.74012 -2.10523 0
M  V30 5495 H 507.786 6.33432 -2.89374 0
M  V30 5496 H 505.413 6.77245 -3.45317 0
M  V30 5497 N 506.988 0.0434614 1.5754 0
M  V30 5498 C 508.216 -0.641835 1.96693 0
M  V30 5499 C 508.631 -1.64832 0.920652 0
M  V30 5500 O 507.988 -1.82247 -0.095993 0
M  V30 5501 C 508.039 -1.33557 3.35924 0
M  V30 5502 O 507.76 -0.369403 4.3654 0
M  V30 5503 C 509.261 -2.11135 3.89791 0
M  V30 5504 H 506.481 -0.176013 0.647503 0
M  V30 5505 H 509.025 0.107478 2.04217 0
M  V30 5506 H 507.18 -2.03617 3.29574 0
M  V30 5507 H 507.594 -0.863674 5.1734 0
M  V30 5508 H 509.068 -2.55107 4.89514 0
M  V30 5509 H 509.545 -2.95634 3.24803 0
M  V30 5510 H 510.151 -1.46002 3.99454 0
M  V30 5511 N 508.466 -1.55915 -0.229846 0
M  V30 5512 C 509.414 -1.9258 -1.30444 0
M  V30 5513 C 510.408 -0.806839 -1.48951 0
M  V30 5514 O 511.614 -0.991606 -1.50224 0
M  V30 5515 H 507.989 -0.611878 -0.437161 0
M  V30 5516 H 509.96 -2.82264 -0.96797 0
M  V30 5517 C 508.709 -2.25171 -2.6494 0
M  V30 5518 H 508.032 -3.10782 -2.51504 0
M  V30 5519 H 509.472 -2.54716 -3.38963 0
M  V30 5520 C 507.931 -1.07394 -3.19324 0
M  V30 5521 O 508.461 -0.330759 -4.00336 0
M  V30 5522 N 506.667 -0.859984 -2.77584 0
M  V30 5523 H 506.214 -1.46605 -2.11813 0
M  V30 5524 H 506.172 -0.0736671 -3.14314 0
M  V30 5525 N 509.944 0.496216 -1.49584 0
M  V30 5526 C 511.193 1.24668 -1.58558 0
M  V30 5527 C 511.506 1.9359 -0.279703 0
M  V30 5528 O 512.712 2.70365 -0.248048 0
M  V30 5529 C 511.168 2.26388 -2.79779 0
M  V30 5530 C 510.776 1.63384 -4.17145 0
M  V30 5531 C 512.52 3.02233 -2.98086 0
M  V30 5532 C 510.427 2.63243 -5.29582 0
M  V30 5533 H 509.357 0.468995 -0.590389 0
M  V30 5534 H 512.008 0.519985 -1.75978 0
M  V30 5535 H 510.39 3.02241 -2.55863 0
M  V30 5536 H 511.564 0.93491 -4.51216 0
M  V30 5537 H 509.879 0.999121 -4.04236 0
M  V30 5538 H 512.476 3.76919 -3.79257 0
M  V30 5539 H 512.819 3.60132 -2.08831 0
M  V30 5540 H 513.352 2.33495 -3.22063 0
M  V30 5541 H 510.091 2.10119 -6.20911 0
M  V30 5542 H 509.611 3.31363 -4.99959 0
M  V30 5543 H 511.29 3.25575 -5.59115 0
M  V30 5544 N 511.423 1.38739 0.74761 0
M  V30 5545 C 512.355 1.32341 1.87132 0
M  V30 5546 C 513.368 0.234502 1.61102 0
M  V30 5547 O 514.557 0.492516 1.71571 0
M  V30 5548 C 511.657 1.02915 3.22896 0
M  V30 5549 C 510.83 2.22834 3.76383 0
M  V30 5550 C 509.889 1.90059 4.90677 0
M  V30 5551 O 508.915 2.62615 5.04997 0
M  V30 5552 N 510.117 0.859141 5.74107 0
M  V30 5553 H 512.882 2.29175 1.93129 0
M  V30 5554 H 510.443 1.32678 0.927805 0
M  V30 5555 H 512.435 0.79031 3.96908 0
M  V30 5556 H 511.005 0.148572 3.12247 0
M  V30 5557 H 510.225 2.62747 2.93867 0
M  V30 5558 H 511.513 3.02851 4.08851 0
M  V30 5559 H 510.911 0.257564 5.65113 0
M  V30 5560 H 509.468 0.680189 6.48241 0
M  V30 5561 N 512.901 -0.976442 1.23707 0
M  V30 5562 C 513.834 -2.06793 0.964973 0
M  V30 5563 C 514.812 -1.62304 -0.0981472 0
M  V30 5564 O 515.996 -1.88464 0.0369477 0
M  V30 5565 C 513.123 -3.35636 0.454522 0
M  V30 5566 C 512.169 -3.99069 1.50485 0
M  V30 5567 S 513.002 -4.37814 3.0835 0
M  V30 5568 C 514.158 -5.69805 2.58985 0
M  V30 5569 H 514.391 -2.29556 1.88922 0
M  V30 5570 H 511.924 -1.11317 1.06995 0
M  V30 5571 H 513.882 -4.10162 0.166626 0
M  V30 5572 H 512.543 -3.10876 -0.448871 0
M  V30 5573 H 511.736 -4.91896 1.09792 0
M  V30 5574 H 511.338 -3.30938 1.7423 0
M  V30 5575 H 513.63 -6.46919 2.01252 0
M  V30 5576 H 514.573 -6.15345 3.50366 0
M  V30 5577 H 514.981 -5.27994 1.99705 0
M  V30 5578 N 514.379 -1.04941 -1.1758 0
M  V30 5579 C 515.289 -0.658826 -2.25159 0
M  V30 5580 C 516.305 0.318941 -1.71052 0
M  V30 5581 O 517.481 0.171669 -2.00667 0
M  V30 5582 C 514.546 -0.0369522 -3.4668 0
M  V30 5583 C 513.607 -1.06484 -4.15884 0
M  V30 5584 C 512.84 -0.472551 -5.31604 0
M  V30 5585 O 513.063 0.718736 -5.65854 0
M  V30 5586 O 511.997 -1.20557 -5.89703 0
M  V30 5587 H 515.823 -1.55533 -2.60851 0
M  V30 5588 H 513.408 -0.820819 -1.24832 0
M  V30 5589 H 515.29 0.308784 -4.20267 0
M  V30 5590 H 513.965 0.833238 -3.12792 0
M  V30 5591 H 512.872 -1.46253 -3.44327 0
M  V30 5592 H 514.205 -1.9061 -4.53794 0
M  V30 5593 N 515.857 1.33968 -0.830081 0
M  V30 5594 C 516.804 2.29387 -0.255008 0
M  V30 5595 C 517.774 1.53923 0.624243 0
M  V30 5596 O 518.959 1.82262 0.564372 0
M  V30 5597 C 516.099 3.4034 0.571209 0
M  V30 5598 C 515.212 4.30729 -0.331083 0
M  V30 5599 C 514.347 5.2879 0.505389 0
M  V30 5600 C 513.386 6.10819 -0.395843 0
M  V30 5601 N 512.523 7.00948 0.401979 0
M  V30 5602 H 517.363 2.77972 -1.07404 0
M  V30 5603 H 514.9 1.36785 -0.541133 0
M  V30 5604 H 516.858 4.03361 1.06562 0
M  V30 5605 H 515.488 2.9297 1.35529 0
M  V30 5606 H 514.54 3.68507 -0.943759 0
M  V30 5607 H 515.852 4.88181 -1.02377 0
M  V30 5608 H 515.006 5.97297 1.06399 0
M  V30 5609 H 513.745 4.71894 1.23155 0
M  V30 5610 H 512.75 5.41238 -0.966529 0
M  V30 5611 H 513.975 6.69797 -1.12023 0
M  V30 5612 H 511.921 6.46512 1.11168 0
M  V30 5613 H 511.838 7.55643 -0.232167 0
M  V30 5614 H 513.106 7.73774 0.943102 0
M  V30 5615 N 517.335 0.585699 1.46312 0
M  V30 5616 C 518.298 -0.135673 2.28798 0
M  V30 5617 C 519.298 -0.815988 1.38558 0
M  V30 5618 O 520.488 -0.667487 1.60904 0
M  V30 5619 C 517.62 -1.20163 3.1902 0
M  V30 5620 H 518.813 0.589257 2.94054 0
M  V30 5621 H 516.366 0.343794 1.52472 0
M  V30 5622 H 517.101 -1.95804 2.58517 0
M  V30 5623 H 516.886 -0.718282 3.85465 0
M  V30 5624 H 518.376 -1.70749 3.81096 0
M  V30 5625 N 518.813 -1.54241 0.323641 0
M  V30 5626 C 519.76 -2.24339 -0.542277 0
M  V30 5627 C 520.73 -1.23421 -1.11159 0
M  V30 5628 O 521.915 -1.52104 -1.15192 0
M  V30 5629 C 519.055 -3.00479 -1.69725 0
M  V30 5630 C 518.168 -4.16214 -1.15716 0
M  V30 5631 C 517.303 -4.79884 -2.27783 0
M  V30 5632 C 516.342 -5.87722 -1.71023 0
M  V30 5633 N 515.479 -6.45254 -2.76752 0
M  V30 5634 H 520.319 -2.97935 0.0620613 0
M  V30 5635 H 517.856 -1.47039 0.0423993 0
M  V30 5636 H 519.814 -3.42869 -2.3769 0
M  V30 5637 H 518.444 -2.29217 -2.27288 0
M  V30 5638 H 517.496 -3.78605 -0.369063 0
M  V30 5639 H 518.808 -4.93838 -0.701832 0
M  V30 5640 H 517.962 -5.25243 -3.03651 0
M  V30 5641 H 516.701 -4.01641 -2.76652 0
M  V30 5642 H 515.706 -5.41765 -0.936518 0
M  V30 5643 H 516.931 -6.67863 -1.2303 0
M  V30 5644 H 514.877 -5.69884 -3.24912 0
M  V30 5645 H 514.794 -7.18292 -2.35782 0
M  V30 5646 H 516.062 -6.95269 -3.5245 0
M  V30 5647 N 520.291 -0.0518155 -1.57515 0
M  V30 5648 C 521.707 0.304735 -1.56664 0
M  V30 5649 C 521.907 1.71395 -1.05953 0
M  V30 5650 O 520.963 2.42123 -0.716414 0
M  V30 5651 C 522.276 0.132614 -3.00407 0
M  V30 5652 C 523.824 0.20367 -3.12337 0
M  V30 5653 C 524.299 0.0600706 -4.57961 0
M  V30 5654 N 525.79 0.116326 -4.63054 0
M  V30 5655 C 526.525 0.0293363 -5.73392 0
M  V30 5656 N 526.021 -0.110038 -6.92713 0
M  V30 5657 N 527.814 0.0849651 -5.62036 0
M  V30 5658 H 519.965 -0.973056 -1.888 0
M  V30 5659 H 522.228 -0.377781 -0.869474 0
M  V30 5660 H 521.934 -0.839019 -3.41546 0
M  V30 5661 H 521.808 0.893376 -3.66468 0
M  V30 5662 H 524.195 1.16578 -2.71097 0
M  V30 5663 H 524.276 -0.587857 -2.48954 0
M  V30 5664 H 523.92 -0.898715 -4.99886 0
M  V30 5665 H 523.85 0.87075 -5.19351 0
M  V30 5666 H 526.341 0.22327 -3.7724 0
M  V30 5667 H 526.654 -0.169104 -7.72615 0
M  V30 5668 H 524.999 -0.145132 -6.94848 0
M  V30 5669 H 528.19 0.192411 -4.67704 0
M  V30 5670 H 528.363 0.0137131 -6.47999 0
M  V30 5671 N 521.769 1.56035 0.221574 0
M  V30 5672 C 522.716 1.92413 1.27459 0
M  V30 5673 C 523.686 0.781323 1.46576 0
M  V30 5674 O 524.871 1.03721 1.60145 0
M  V30 5675 C 522.011 2.24617 2.61995 0
M  V30 5676 C 521.124 3.51831 2.50677 0
M  V30 5677 C 520.259 3.73482 3.77736 0
M  V30 5678 C 519.298 4.94211 3.6114 0
M  V30 5679 N 518.435 5.12252 4.80148 0
M  V30 5680 H 523.275 2.82203 0.957355 0
M  V30 5681 H 520.812 1.39676 0.461415 0
M  V30 5682 H 522.77 2.41298 3.40339 0
M  V30 5683 H 521.4 1.38 2.91815 0
M  V30 5684 H 520.452 3.43343 1.63767 0
M  V30 5685 H 521.764 4.40328 2.34334 0
M  V30 5686 H 520.918 3.9026 4.64523 0
M  V30 5687 H 519.657 2.83266 3.97003 0
M  V30 5688 H 518.662 4.77384 2.72736 0
M  V30 5689 H 519.887 5.85912 3.43343 0
M  V30 5690 H 517.833 4.24978 4.99729 0
M  V30 5691 H 517.75 5.94881 4.66532 0
M  V30 5692 H 519.018 5.33465 5.68362 0
M  V30 5693 N 523.247 -0.488276 1.49845 0
M  V30 5694 C 524.475 -1.26527 1.63702 0
M  V30 5695 C 524.89 -1.8618 0.313447 0
M  V30 5696 O 524.247 -1.68432 -0.702624 0
M  V30 5697 C 524.298 -2.3864 2.71538 0
M  V30 5698 O 524.019 -1.81437 3.98763 0
M  V30 5699 C 525.52 -3.29805 2.96215 0
M  V30 5700 H 522.74 -0.383295 0.55075 0
M  V30 5701 H 525.284 -0.584779 1.95961 0
M  V30 5702 H 523.439 -3.02496 2.42023 0
M  V30 5703 H 523.853 -2.55135 4.58265 0
M  V30 5704 H 525.327 -4.04722 3.75372 0
M  V30 5705 H 525.804 -3.87563 2.06619 0
M  V30 5706 H 526.41 -2.71703 3.27196 0
M  V30 5707 N 524.725 -1.39134 -0.740242 0
M  V30 5708 C 525.95 -1.39518 -1.53459 0
M  V30 5709 C 526.375 0.00968883 -1.88098 0
M  V30 5710 O 525.733 0.995312 -1.51536 0
M  V30 5711 C 525.781 -2.26981 -2.802 0
M  V30 5712 O 524.885 -1.69609 -3.75908 0
M  V30 5713 H 524.226 -0.475328 -0.463637 0
M  V30 5714 H 526.756 -1.83064 -0.913717 0
M  V30 5715 H 526.766 -2.41309 -3.28989 0
M  V30 5716 H 525.441 -3.29081 -2.5432 0
M  V30 5717 H 524.018 -1.64495 -3.34658 0
M  V30 5718 N 526.204 0.969867 -1.24223 0
M  V30 5719 C 527.151 2.06407 -1.0327 0
M  V30 5720 C 528.121 1.66014 0.0533 0
M  V30 5721 O 529.306 1.90533 -0.100896 0
M  V30 5722 C 526.446 3.3909 -0.641262 0
M  V30 5723 C 525.559 3.9269 -1.80051 0
M  V30 5724 C 524.694 5.13631 -1.35486 0
M  V30 5725 C 523.733 5.59423 -2.48419 0
M  V30 5726 N 522.87 6.71586 -2.04737 0
M  V30 5727 H 527.71 2.23663 -1.96923 0
M  V30 5728 H 525.247 1.09624 -0.980862 0
M  V30 5729 H 527.205 4.15323 -0.395351 0
M  V30 5730 H 525.835 3.21765 0.258269 0
M  V30 5731 H 524.887 3.13116 -2.16014 0
M  V30 5732 H 526.199 4.22636 -2.64916 0
M  V30 5733 H 525.353 5.97231 -1.0677 0
M  V30 5734 H 524.092 4.85364 -0.476722 0
M  V30 5735 H 523.097 4.74398 -2.77897 0
M  V30 5736 H 524.322 5.89705 -3.36786 0
M  V30 5737 H 522.268 6.45058 -1.19318 0
M  V30 5738 H 522.185 7.0097 -2.83156 0
M  V30 5739 H 523.453 7.58633 -1.79154 0
M  V30 5740 N 527.682 1.05563 1.17022 0
M  V30 5741 C 529.093 0.793475 1.69 0
M  V30 5742 C 529.444 -0.683882 1.83895 0
M  V30 5743 O 528.569 -1.53116 1.5292 0
M  V30 5744 C 529.164 1.43376 3.06967 0
M  V30 5745 C 527.723 1.21956 3.56095 0
M  V30 5746 C 526.87 1.51494 2.3226 0
M  V30 5747 H 529.821 1.22008 1.01487 0
M  V30 5748 H 529.842 0.845068 3.70997 0
M  V30 5749 H 529.354 2.50899 2.96093 0
M  V30 5750 H 527.455 0.163749 3.7224 0
M  V30 5751 H 527.568 1.92713 4.38633 0
M  V30 5752 H 525.932 0.935175 2.3691 0
M  V30 5753 H 526.715 2.60159 2.23992 0
M  V30 5754 N 529.16 -1.33526 0.837174 0
M  V30 5755 C 530.571 -1.80182 0.489017 0
M  V30 5756 C 530.922 -1.69285 -0.991826 0
M  V30 5757 O 530.047 -1.24113 -1.77271 0
M  V30 5758 C 530.642 -3.27149 0.880866 0
M  V30 5759 C 529.201 -3.71828 0.584872 0
M  V30 5760 C 528.348 -2.54974 1.09011 0
M  V30 5761 H 531.299 -1.21071 1.02603 0
M  V30 5762 H 531.32 -3.80024 0.190239 0
M  V30 5763 H 530.832 -3.35048 1.95869 0
M  V30 5764 H 528.933 -3.69457 -0.48295 0
M  V30 5765 H 529.046 -4.65366 1.13892 0
M  V30 5766 H 527.41 -2.4952 0.511047 0
M  V30 5767 H 528.193 -2.65637 2.17467 0
M  V30 5768 N 530.638 -0.59345 -1.46 0
M  V30 5769 C 531.57 0.171569 -2.28557 0
M  V30 5770 C 532.583 0.845273 -1.39137 0
M  V30 5771 O 533.772 0.713033 -1.6364 0
M  V30 5772 C 530.872 1.26311 -3.14482 0
M  V30 5773 C 530.045 0.679258 -4.32094 0
M  V30 5774 C 529.104 1.65987 -4.99334 0
M  V30 5775 O 528.13 1.19171 -5.56585 0
M  V30 5776 N 529.332 2.99414 -4.97324 0
M  V30 5777 H 532.097 -0.536771 -2.94854 0
M  V30 5778 H 529.658 -0.431954 -1.56031 0
M  V30 5779 H 531.65 1.91863 -3.5633 0
M  V30 5780 H 530.22 1.87416 -2.50188 0
M  V30 5781 H 529.44 -0.153992 -3.93899 0
M  V30 5782 H 530.728 0.26916 -5.08088 0
M  V30 5783 H 530.126 3.40064 -4.52076 0
M  V30 5784 H 528.683 3.60426 -5.4308 0
M  V30 5785 N 532.116 1.54067 -0.331816 0
M  V30 5786 C 533.026 2.28322 0.539104 0
M  V30 5787 C 534.042 1.32985 1.1221 0
M  V30 5788 O 535.218 1.6601 1.1403 0
M  V30 5789 C 532.283 3.03277 1.68 0
M  V30 5790 C 531.344 4.14216 1.12798 0
M  V30 5791 C 530.577 4.85588 2.2145 0
M  V30 5792 O 530.8 4.56536 3.41952 0
M  V30 5793 O 529.734 5.72309 1.86404 0
M  V30 5794 H 533.56 3.03632 -0.0641692 0
M  V30 5795 H 531.145 1.49083 -0.0972365 0
M  V30 5796 H 533.027 3.50189 2.34405 0
M  V30 5797 H 531.702 2.30834 2.2693 0
M  V30 5798 H 530.609 3.71635 0.428782 0
M  V30 5799 H 531.942 4.88727 0.583698 0
M  V30 5800 N 533.594 0.0601682 1.57485 0
M  V30 5801 C 534.84 -0.612501 1.93329 0
M  V30 5802 C 535.173 -1.6996 0.939526 0
M  V30 5803 O 534.448 -1.94472 -0.0330957 0
M  V30 5804 C 534.731 -1.20025 3.39508 0
M  V30 5805 C 534.584 -0.12059 4.49638 0
M  V30 5806 C 535.903 -2.10923 3.86264 0
M  V30 5807 H 533.022 -0.221185 0.703027 0
M  V30 5808 H 535.664 0.123768 1.89596 0
M  V30 5809 H 533.814 -1.82774 3.42821 0
M  V30 5810 H 535.486 0.51185 4.58452 0
M  V30 5811 H 533.729 0.550251 4.30296 0
M  V30 5812 H 534.4 -0.572019 5.49028 0
M  V30 5813 H 536.876 -1.58124 3.84884 0
M  V30 5814 H 535.752 -2.48987 4.8918 0
M  V30 5815 H 536.013 -3.01292 3.23536 0
M  V30 5816 N 535.072 -1.5615 -0.213296 0
M  V30 5817 C 536.483 -1.69645 -0.779582 0
M  V30 5818 C 536.834 -0.663615 -1.84636 0
M  V30 5819 O 535.959 0.183633 -2.15619 0
M  V30 5820 C 536.554 -3.07567 -1.42084 0
M  V30 5821 C 535.113 -3.22889 -1.93442 0
M  V30 5822 C 534.26 -2.65581 -0.797612 0
M  V30 5823 H 537.211 -1.58696 0.0114951 0
M  V30 5824 H 537.232 -3.03884 -2.28986 0
M  V30 5825 H 536.744 -3.82716 -0.644187 0
M  V30 5826 H 534.845 -2.52623 -2.73884 0
M  V30 5827 H 534.958 -4.30197 -2.10872 0
M  V30 5828 H 533.322 -2.24278 -1.20712 0
M  V30 5829 H 534.105 -3.43284 -0.033494 0
M  V30 5830 N 536.55 0.480323 -1.50102 0
M  V30 5831 C 537.513 1.56181 -1.6775 0
M  V30 5832 C 538.513 1.51156 -0.548503 0
M  V30 5833 O 539.703 1.5394 -0.815363 0
M  V30 5834 C 536.835 2.95823 -1.69415 0
M  V30 5835 H 538.028 1.41855 -2.6423 0
M  V30 5836 H 535.581 0.70605 -1.39444 0
M  V30 5837 H 536.316 3.15604 -0.745948 0
M  V30 5838 H 536.101 3.00878 -2.51425 0
M  V30 5839 H 537.591 3.74359 -1.85054 0
M  V30 5840 N 538.028 1.39524 0.732853 0
M  V30 5841 C 538.991 1.38189 1.82857 0
M  V30 5842 C 539.991 0.278624 1.58368 0
M  V30 5843 O 541.181 0.536639 1.65728 0
M  V30 5844 C 538.313 1.15661 3.2068 0
M  V30 5845 H 539.506 2.35692 1.85444 0
M  V30 5846 H 537.059 1.2512 0.936728 0
M  V30 5847 H 537.794 0.188482 3.23752 0
M  V30 5848 H 537.579 1.95559 3.39852 0
M  V30 5849 H 539.069 1.17472 4.00737 0
M  V30 5850 N 539.506 -0.963266 1.24736 0
M  V30 5851 C 540.917 -1.52145 1.08207 0
M  V30 5852 C 541.268 -1.93142 -0.345061 0
M  V30 5853 O 540.393 -1.77769 -1.23399 0
M  V30 5854 C 540.988 -2.76486 1.95808 0
M  V30 5855 C 539.547 -3.28646 1.8349 0
M  V30 5856 C 538.694 -2.01529 1.90476 0
M  V30 5857 H 541.645 -0.781083 1.38148 0
M  V30 5858 H 541.666 -3.49986 1.49297 0
M  V30 5859 H 541.178 -2.46617 2.99669 0
M  V30 5860 H 539.279 -3.63357 0.824787 0
M  V30 5861 H 539.392 -3.97246 2.67829 0
M  V30 5862 H 537.756 -2.16442 1.34258 0
M  V30 5863 H 538.539 -1.7402 2.95926 0
M  V30 5864 N 540.985 -1.06182 -1.16461 0
M  V30 5865 C 542.231 -0.779015 -1.87241 0
M  V30 5866 C 542.564 0.692715 -1.81425 0
M  V30 5867 O 541.839 1.5074 -1.22913 0
M  V30 5868 C 542.122 -1.2728 -3.36856 0
M  V30 5869 C 541.975 -2.80821 -3.51368 0
M  V30 5870 C 543.294 -0.879799 -4.31216 0
M  V30 5871 H 540.413 -0.284464 -0.679889 0
M  V30 5872 H 543.055 -1.31755 -1.36896 0
M  V30 5873 H 541.205 -0.814673 -3.79862 0
M  V30 5874 H 542.877 -3.34833 -3.17308 0
M  V30 5875 H 541.12 -3.19606 -2.93316 0
M  V30 5876 H 541.791 -3.10435 -4.56436 0
M  V30 5877 H 544.267 -1.27436 -3.96105 0
M  V30 5878 H 543.143 -1.25278 -5.34412 0
M  V30 5879 H 543.404 0.215372 -4.41575 0
M  V30 5880 N 542.463 1.3308 -0.844243 0
M  V30 5881 C 543.395 2.27954 -0.238671 0
M  V30 5882 C 544.408 1.51978 0.583665 0
M  V30 5883 O 545.597 1.73731 0.409857 0
M  V30 5884 C 542.697 3.31963 0.682185 0
M  V30 5885 C 541.87 4.37281 -0.101998 0
M  V30 5886 C 540.929 5.20928 0.743022 0
M  V30 5887 O 539.955 5.68914 0.180285 0
M  V30 5888 N 541.157 5.42738 2.0595 0
M  V30 5889 H 543.922 2.8056 -1.05386 0
M  V30 5890 H 541.483 1.4583 -0.70322 0
M  V30 5891 H 543.475 3.84828 1.25259 0
M  V30 5892 H 542.045 2.79594 1.39808 0
M  V30 5893 H 541.265 3.84843 -0.853802 0
M  V30 5894 H 542.553 5.04746 -0.641015 0
M  V30 5895 H 541.951 5.05463 2.54016 0
M  V30 5896 H 540.508 5.98639 2.57827 0
M  V30 5897 N 543.941 0.601185 1.45683 0
M  V30 5898 C 545.357 0.264315 1.57396 0
M  V30 5899 C 545.557 -1.23324 1.59353 0
M  V30 5900 O 544.613 -2.01594 1.52039 0
M  V30 5901 C 545.926 0.929839 2.85962 0
M  V30 5902 C 547.474 0.905156 2.99626 0
M  V30 5903 C 547.949 1.55057 4.30954 0
M  V30 5904 N 549.44 1.51576 4.37697 0
M  V30 5905 C 550.175 1.98436 5.37969 0
M  V30 5906 N 549.671 2.53352 6.44813 0
M  V30 5907 N 551.464 1.89242 5.29286 0
M  V30 5908 H 543.615 1.57363 1.42656 0
M  V30 5909 H 545.878 0.658831 0.681649 0
M  V30 5910 H 545.584 1.98404 2.90394 0
M  V30 5911 H 545.458 0.449224 3.74515 0
M  V30 5912 H 547.845 -0.14048 2.94765 0
M  V30 5913 H 547.926 1.42397 2.12501 0
M  V30 5914 H 547.57 2.5955 4.36573 0
M  V30 5915 H 547.5 1.00682 5.16886 0
M  V30 5916 H 549.991 1.11452 3.61091 0
M  V30 5917 H 550.304 2.86918 7.17564 0
M  V30 5918 H 548.649 2.57388 6.45582 0
M  V30 5919 H 551.84 1.46083 4.44722 0
M  V30 5920 H 552.013 2.26075 6.07284 0
M  V30 5921 N 545.419 -1.53889 0.339982 0
M  V30 5922 C 546.329 -2.28604 -0.526988 0
M  V30 5923 C 547.345 -1.33578 -1.11503 0
M  V30 5924 O 548.521 -1.66612 -1.13148 0
M  V30 5925 C 545.586 -3.04164 -1.66389 0
M  V30 5926 C 544.647 -4.14809 -1.10599 0
M  V30 5927 C 543.88 -4.86756 -2.18871 0
M  V30 5928 O 544.103 -4.58343 -3.39526 0
M  V30 5929 O 543.037 -5.73289 -1.83366 0
M  V30 5930 H 546.863 -3.03594 0.0802707 0
M  V30 5931 H 544.448 -1.4903 0.105141 0
M  V30 5932 H 546.33 -3.51427 -2.32544 0
M  V30 5933 H 545.005 -2.32035 -2.25703 0
M  V30 5934 H 543.912 -3.71857 -0.409067 0
M  V30 5935 H 545.245 -4.89029 -0.557771 0
M  V30 5936 N 546.897 -0.0685191 -1.57451 0
M  V30 5937 C 547.844 0.899861 -2.12535 0
M  V30 5938 C 548.814 1.29749 -1.03703 0
M  V30 5939 O 549.999 1.38392 -1.31348 0
M  V30 5940 C 547.139 2.16328 -2.6888 0
M  V30 5941 C 546.252 1.81857 -3.91857 0
M  V30 5942 C 545.387 3.02786 -4.36457 0
M  V30 5943 C 544.426 2.64317 -5.5209 0
M  V30 5944 N 543.563 3.77994 -5.91663 0
M  V30 5945 H 548.403 0.423243 -2.94979 0
M  V30 5946 H 545.94 0.197268 -1.45771 0
M  V30 5947 H 547.898 2.90281 -2.99655 0
M  V30 5948 H 546.528 2.61536 -1.89206 0
M  V30 5949 H 545.58 0.979808 -3.67565 0
M  V30 5950 H 546.892 1.49553 -4.75852 0
M  V30 5951 H 546.046 3.85021 -4.68875 0
M  V30 5952 H 544.785 3.38281 -3.51308 0
M  V30 5953 H 543.79 1.80503 -5.19325 0
M  V30 5954 H 545.015 2.29995 -6.38967 0
M  V30 5955 H 542.961 4.13258 -5.09464 0
M  V30 5956 H 542.878 3.49447 -6.7039 0
M  V30 5957 H 544.146 4.60818 -6.28703 0
M  V30 5958 N 548.375 1.56261 0.205012 0
M  V30 5959 C 549.325 1.90155 1.25798 0
M  V30 5960 C 550.309 0.766227 1.41484 0
M  V30 5961 O 551.501 1.02893 1.44021 0
M  V30 5962 C 548.63 2.23603 2.60493 0
M  V30 5963 C 547.716 3.43568 2.48639 0
M  V30 5964 N 548.107 4.61747 2.06455 0
M  V30 5965 C 546.405 3.4751 2.79558 0
M  V30 5966 C 547.106 5.43907 2.06253 0
M  V30 5967 N 546.082 4.84051 2.47377 0
M  V30 5968 H 549.884 2.79031 0.922986 0
M  V30 5969 H 547.398 1.57048 0.413501 0
M  V30 5970 H 549.395 2.46067 3.36537 0
M  V30 5971 H 548.055 1.36049 2.94823 0
M  V30 5972 H 549.066 4.86598 1.77321 0
M  V30 5973 H 545.743 2.70345 3.18151 0
M  V30 5974 H 547.133 6.48542 1.75622 0
M  V30 5975 N 549.853 -0.472356 1.50355 0
M  V30 5976 C 551.264 -1.05326 1.54154 0
M  V30 5977 C 551.615 -1.93155 0.344303 0
M  V30 5978 O 550.74 -2.09479 -0.542928 0
M  V30 5979 C 551.335 -1.91691 2.79356 0
M  V30 5980 C 549.894 -2.44892 2.8584 0
M  V30 5981 C 549.041 -1.23205 2.48426 0
M  V30 5982 H 551.992 -0.255027 1.56637 0
M  V30 5983 H 552.013 -2.76742 2.6114 0
M  V30 5984 H 551.525 -1.27741 3.66475 0
M  V30 5985 H 549.626 -3.12399 2.0307 0
M  V30 5986 H 549.739 -2.80086 3.88701 0
M  V30 5987 H 548.103 -1.56643 2.00836 0
M  V30 5988 H 548.886 -0.609194 3.37852 0
M  V30 5989 N 551.331 -1.39911 -0.725443 0
M  V30 5990 C 552.241 -1.41688 -1.8698 0
M  V30 5991 C 553.257 -0.310579 -1.71206 0
M  V30 5992 O 554.433 -0.55359 -1.93642 0
M  V30 5993 C 551.498 -1.26811 -3.22676 0
M  V30 5994 C 550.559 -2.47497 -3.50776 0
M  V30 5995 C 549.792 -2.3332 -4.79997 0
M  V30 5996 O 550.015 -1.34175 -5.54394 0
M  V30 5997 O 548.949 -3.22498 -5.08211 0
M  V30 5998 H 552.775 -2.38171 -1.88436 0
M  V30 5999 H 550.36 -1.21128 -0.874548 0
M  V30 6000 H 552.242 -1.20684 -4.03749 0
M  V30 6001 H 550.917 -0.334289 -3.21969 0
M  V30 6002 H 549.824 -2.59201 -2.69751 0
M  V30 6003 H 551.157 -3.39606 -3.5627 0
M  V30 6004 N 552.809 0.956637 -1.25245 0
M  V30 6005 C 553.772 2.03457 -1.05537 0
M  V30 6006 C 554.772 1.60798 -0.00886317 0
M  V30 6007 O 555.962 1.72384 -0.250865 0
M  V30 6008 C 553.094 3.35543 -0.601965 0
M  V30 6009 H 554.287 2.22372 -2.01223 0
M  V30 6010 H 551.84 1.13344 -1.07623 0
M  V30 6011 H 552.575 3.22323 0.357584 0
M  V30 6012 H 552.36 3.67854 -1.35743 0
M  V30 6013 H 553.85 4.14769 -0.485454 0
M  V30 6014 N 554.287 1.06798 1.15896 0
M  V30 6015 C 555.698 0.811355 1.68149 0
M  V30 6016 C 556.049 -0.664339 1.8461 0
M  V30 6017 O 555.174 -1.51485 1.54535 0
M  V30 6018 C 555.769 1.46624 3.05429 0
M  V30 6019 C 554.328 1.25726 3.54781 0
M  V30 6020 C 553.475 1.53949 2.3064 0
M  V30 6021 H 556.426 1.23078 1.00187 0
M  V30 6022 H 556.447 0.88437 3.7008 0
M  V30 6023 H 555.959 2.54025 2.93416 0
M  V30 6024 H 554.06 0.20322 3.72045 0
M  V30 6025 H 554.173 1.97354 4.36564 0
M  V30 6026 H 552.537 0.96025 2.35905 0
M  V30 6027 H 553.32 2.6252 2.2122 0
M  V30 6028 N 555.766 -1.3263 0.851289 0
M  V30 6029 C 556.696 -2.31449 0.308771 0
M  V30 6030 C 557.677 -1.59531 -0.590255 0
M  V30 6031 O 558.862 -1.87351 -0.511205 0
M  V30 6032 C 555.992 -3.43586 -0.506548 0
M  V30 6033 C 554.946 -4.26963 0.297753 0
M  V30 6034 C 554.272 -5.30831 -0.642094 0
M  V30 6035 C 555.572 -4.99643 1.52166 0
M  V30 6036 H 557.266 -2.77074 1.13447 0
M  V30 6037 H 554.812 -1.33207 0.546971 0
M  V30 6038 H 556.765 -4.11754 -0.896474 0
M  V30 6039 H 555.489 -2.96681 -1.36558 0
M  V30 6040 H 554.148 -3.60437 0.669391 0
M  V30 6041 H 553.796 -4.8018 -1.49788 0
M  V30 6042 H 553.496 -5.87501 -0.107968 0
M  V30 6043 H 555.02 -6.01862 -1.02927 0
M  V30 6044 H 556.434 -5.6051 1.20421 0
M  V30 6045 H 554.831 -5.66022 1.99347 0
M  V30 6046 H 555.901 -4.27701 2.28474 0
M  V30 6047 N 557.244 -0.608902 -1.45362 0
M  V30 6048 C 558.176 0.147318 -2.28726 0
M  V30 6049 C 559.189 0.830468 -1.40025 0
M  V30 6050 O 560.378 0.695636 -1.64387 0
M  V30 6051 C 557.478 1.22968 -3.15804 0
M  V30 6052 C 556.651 0.633391 -4.3279 0
M  V30 6053 C 555.71 1.60682 -5.01067 0
M  V30 6054 O 554.736 1.13261 -5.57818 0
M  V30 6055 N 555.938 2.94123 -5.00472 0
M  V30 6056 H 558.703 -0.568014 -2.94268 0
M  V30 6057 H 556.264 -0.448479 -1.55564 0
M  V30 6058 H 558.256 1.88072 -3.58345 0
M  V30 6059 H 556.826 1.84752 -2.52162 0
M  V30 6060 H 556.046 -0.195762 -3.93714 0
M  V30 6061 H 557.334 0.215255 -5.08344 0
M  V30 6062 H 556.732 3.3525 -4.55657 0
M  V30 6063 H 555.289 3.54646 -5.46872 0
M  V30 6064 N 558.722 1.53707 -0.348139 0
M  V30 6065 C 559.67 2.26671 0.521808 0
M  V30 6066 C 560.664 1.28988 1.09811 0
M  V30 6067 O 561.87 1.4668 1.04332 0
M  V30 6068 H 558.245 0.728387 0.186968 0
M  V30 6069 H 560.216 2.98176 -0.115563 0
M  V30 6070 C 558.965 3.05591 1.6586 0
M  V30 6071 H 558.288 3.80589 1.22443 0
M  V30 6072 H 559.728 3.59851 2.24239 0
M  V30 6073 C 558.187 2.15366 2.59073 0
M  V30 6074 O 558.717 1.7528 3.61441 0
M  V30 6075 N 556.923 1.80352 2.27863 0
M  V30 6076 H 556.47 2.13149 1.44656 0
M  V30 6077 H 556.428 1.20268 2.90488 0
M  V30 6078 N 560.2 0.0768682 1.57412 0
M  V30 6079 C 561.428 -0.59997 1.9801 0
M  V30 6080 C 561.843 -1.62842 0.955408 0
M  V30 6081 O 561.2 -1.8241 -0.057314 0
M  V30 6082 C 561.251 -1.26401 3.38681 0
M  V30 6083 O 560.972 -0.276723 4.37225 0
M  V30 6084 C 562.473 -2.0282 3.94182 0
M  V30 6085 H 559.693 -0.162239 0.651091 0
M  V30 6086 H 562.237 0.150771 2.03943 0
M  V30 6087 H 560.392 -1.96581 3.33819 0
M  V30 6088 H 560.806 -0.753744 5.19056 0
M  V30 6089 H 562.28 -2.44667 4.94815 0
M  V30 6090 H 562.757 -2.88678 3.31001 0
M  V30 6091 H 563.363 -1.37496 4.02461 0
M  V30 6092 N 561.678 -1.56367 -0.196722 0
M  V30 6093 C 562.626 -1.95304 -1.2633 0
M  V30 6094 C 563.62 -0.838252 -1.47206 0
M  V30 6095 O 564.826 -1.02325 -1.48087 0
M  V30 6096 H 561.201 -0.621013 -0.424083 0
M  V30 6097 H 563.172 -2.84254 -0.907879 0
M  V30 6098 C 561.921 -2.3074 -2.60104 0
M  V30 6099 H 561.244 -3.16047 -2.44856 0
M  V30 6100 H 562.684 -2.61849 -3.33484 0
M  V30 6101 C 561.143 -1.14143 -3.16975 0
M  V30 6102 O 561.673 -0.415602 -3.99544 0
M  V30 6103 N 559.879 -0.91867 -2.75697 0
M  V30 6104 H 559.426 -1.51065 -2.08656 0
M  V30 6105 H 559.384 -0.140321 -3.14087 0
M  V30 6106 N 563.156 0.464375 -1.50603 0
M  V30 6107 C 564.119 1.54393 -1.69397 0
M  V30 6108 C 565.119 1.50566 -0.564504 0
M  V30 6109 O 566.309 1.53066 -0.831645 0
M  V30 6110 C 563.441 2.9401 -1.72543 0
M  V30 6111 H 564.634 1.39044 -2.65719 0
M  V30 6112 H 562.187 0.69122 -1.40185 0
M  V30 6113 H 562.922 3.14795 -0.77938 0
M  V30 6114 H 562.707 2.98195 -2.54602 0
M  V30 6115 H 564.197 3.72375 -1.89015 0
M  V30 6116 N 564.634 1.40294 0.718013 0
M  V30 6117 C 565.582 1.40536 1.85344 0
M  V30 6118 C 566.576 0.286192 1.66965 0
M  V30 6119 O 567.782 0.457105 1.74099 0
M  V30 6120 H 564.157 0.439236 0.61039 0
M  V30 6121 H 566.128 2.36275 1.82255 0
M  V30 6122 C 564.877 1.28245 3.23185 0
M  V30 6123 H 564.2 2.1364 3.37932 0
M  V30 6124 H 565.64 1.32474 4.02774 0
M  V30 6125 C 564.099 -0.0075503 3.36899 0
M  V30 6126 O 564.629 -0.971391 3.89778 0
M  V30 6127 N 562.835 -0.0762479 2.905 0
M  V30 6128 H 562.382 0.708819 2.47656 0
M  V30 6129 H 562.34 -0.938846 3.00055 0
M  V30 6130 N 566.112 -0.949982 1.2575 0
M  V30 6131 C 567.042 -2.06483 1.09028 0
M  V30 6132 C 568.023 -1.701 -0.00201532 0
M  V30 6133 O 569.208 -1.93469 0.168383 0
M  V30 6134 C 566.338 -3.39899 0.71316 0
M  V30 6135 C 565.292 -3.90309 1.75621 0
M  V30 6136 C 564.618 -5.20274 1.23365 0
M  V30 6137 C 565.918 -4.16169 3.15596 0
M  V30 6138 H 567.612 -2.20731 2.02283 0
M  V30 6139 H 565.158 -1.06066 0.973964 0
M  V30 6140 H 567.111 -4.17346 0.58309 0
M  V30 6141 H 565.835 -3.25602 -0.255091 0
M  V30 6142 H 564.494 -3.15035 1.8748 0
M  V30 6143 H 564.142 -5.02351 0.255491 0
M  V30 6144 H 563.842 -5.54971 1.93082 0
M  V30 6145 H 565.366 -6.00314 1.11607 0
M  V30 6146 H 566.78 -4.84259 3.06864 0
M  V30 6147 H 565.177 -4.62131 3.82825 0
M  V30 6148 H 566.247 -3.22273 3.6231 0
M  V30 6149 N 567.59 -1.07411 -1.15328 0
M  V30 6150 C 568.538 -0.689316 -2.22151 0
M  V30 6151 C 569.532 0.300156 -1.6672 0
M  V30 6152 O 570.738 0.163804 -1.79253 0
M  V30 6153 H 567.113 -0.204834 -0.723566 0
M  V30 6154 H 569.084 -1.59988 -2.51886 0
M  V30 6155 C 567.833 -0.103848 -3.47545 0
M  V30 6156 H 567.156 -0.856367 -3.90521 0
M  V30 6157 H 568.596 0.127725 -4.23808 0
M  V30 6158 C 567.055 1.15563 -3.1646 0
M  V30 6159 O 567.585 2.242 -3.33312 0
M  V30 6160 N 565.791 1.06203 -2.70498 0
M  V30 6161 H 565.338 0.177933 -2.56985 0
M  V30 6162 H 565.296 1.90553 -2.50074 0
M  V30 6163 N 569.068 1.32177 -0.85831 0
M  V30 6164 C 570.001 2.26823 -0.25035 0
M  V30 6165 C 570.979 1.50571 0.61378 0
M  V30 6166 O 572.163 1.79682 0.569777 0
M  V30 6167 C 569.29 3.32472 0.646556 0
M  V30 6168 C 568.336 4.26255 -0.144675 0
M  V30 6169 S 569.169 5.13608 -1.5155 0
M  V30 6170 C 570.325 6.22778 -0.624408 0
M  V30 6171 H 570.558 2.7804 -1.05267 0
M  V30 6172 H 568.091 1.39764 -0.656152 0
M  V30 6173 H 570.049 3.93817 1.15837 0
M  V30 6174 H 568.71 2.80031 1.42272 0
M  V30 6175 H 567.903 5.01114 0.538613 0
M  V30 6176 H 567.505 3.69346 -0.588198 0
M  V30 6177 H 569.797 6.77287 0.169846 0
M  V30 6178 H 570.74 6.95233 -1.34376 0
M  V30 6179 H 571.148 5.64156 -0.197128 0
M  V30 6180 N 570.547 0.616602 1.45037 0
M  V30 6181 C 571.963 0.280994 1.57107 0
M  V30 6182 C 572.163 -1.21627 1.60653 0
M  V30 6183 O 571.219 -1.9997 1.54169 0
M  V30 6184 C 572.532 0.960116 2.8496 0
M  V30 6185 C 574.08 0.936884 2.98649 0
M  V30 6186 C 574.555 1.59619 4.29285 0
M  V30 6187 N 576.046 1.5621 4.36065 0
M  V30 6188 C 576.781 2.04131 5.35834 0
M  V30 6189 N 576.277 2.60177 6.4209 0
M  V30 6190 N 578.07 1.94845 5.27249 0
M  V30 6191 H 570.221 1.58867 1.40979 0
M  V30 6192 H 572.484 0.666024 0.674623 0
M  V30 6193 H 572.19 2.01473 2.88273 0
M  V30 6194 H 572.064 0.488921 3.74018 0
M  V30 6195 H 574.451 -0.109209 2.94898 0
M  V30 6196 H 574.532 1.44643 2.10979 0
M  V30 6197 H 574.176 2.64166 4.33796 0
M  V30 6198 H 574.106 1.06159 5.15789 0
M  V30 6199 H 576.597 1.15276 3.59889 0
M  V30 6200 H 576.91 2.94513 7.1448 0
M  V30 6201 H 575.255 2.64221 6.42816 0
M  V30 6202 H 578.446 1.50792 4.43147 0
M  V30 6203 H 578.619 2.32504 6.04852 0
M  V30 6204 N 572.025 -1.5352 0.356285 0
M  V30 6205 C 572.972 -2.25439 -0.494569 0
M  V30 6206 C 573.942 -1.25752 -1.08516 0
M  V30 6207 O 575.127 -1.54513 -1.1194 0
M  V30 6208 C 572.267 -3.04011 -1.63313 0
M  V30 6209 C 571.38 -4.18574 -1.06862 0
M  V30 6210 C 570.515 -4.84607 -2.17552 0
M  V30 6211 C 569.554 -5.91218 -1.58518 0
M  V30 6212 N 568.691 -6.50979 -2.63003 0
M  V30 6213 H 573.531 -2.97737 0.125244 0
M  V30 6214 H 571.068 -1.46916 0.0735789 0
M  V30 6215 H 573.026 -3.47834 -2.30363 0
M  V30 6216 H 571.656 -2.33986 -2.22374 0
M  V30 6217 H 570.708 -3.79303 -0.288672 0
M  V30 6218 H 572.02 -4.95215 -0.596924 0
M  V30 6219 H 571.174 -5.31566 -2.92442 0
M  V30 6220 H 569.913 -4.07418 -2.6807 0
M  V30 6221 H 568.918 -5.4363 -0.821391 0
M  V30 6222 H 570.143 -6.70322 -1.08836 0
M  V30 6223 H 568.089 -5.76648 -3.12751 0
M  V30 6224 H 568.006 -7.23131 -2.20493 0
M  V30 6225 H 569.274 -7.02589 -3.37623 0
M  V30 6226 N 573.503 -0.0852151 -1.57369 0
M  V30 6227 C 574.919 0.271436 -1.57275 0
M  V30 6228 C 575.119 1.69109 -1.09565 0
M  V30 6229 O 574.175 2.40549 -0.767611 0
M  V30 6230 C 575.488 0.0688638 -3.00621 0
M  V30 6231 C 577.036 0.137373 -3.12698 0
M  V30 6232 C 577.511 -0.0370832 -4.57985 0
M  V30 6233 N 579.002 0.0180794 -4.63196 0
M  V30 6234 C 579.737 -0.0922953 -5.73326 0
M  V30 6235 N 579.233 -0.256948 -6.92323 0
M  V30 6236 N 581.026 -0.0342702 -5.6209 0
M  V30 6237 H 573.177 -1.01288 -1.86693 0
M  V30 6238 H 575.44 -0.396138 -0.861266 0
M  V30 6239 H 575.146 -0.911277 -3.39689 0
M  V30 6240 H 575.02 0.815442 -3.6828 0
M  V30 6241 H 577.407 1.10801 -2.73509 0
M  V30 6242 H 577.488 -0.640532 -2.47651 0
M  V30 6243 H 577.132 -1.00455 -4.97867 0
M  V30 6244 H 577.062 0.760392 -5.21081 0
M  V30 6245 H 579.553 0.143202 -3.77629 0
M  V30 6246 H 579.866 -0.332949 -7.72082 0
M  V30 6247 H 578.211 -0.292487 -6.94384 0
M  V30 6248 H 581.402 0.0931605 -4.68007 0
M  V30 6249 H 581.575 -0.12374 -6.47882 0
M  V30 6250 N 574.981 1.5647 0.188427 0
M  V30 6251 C 576.209 1.85131 0.923803 0
M  V30 6252 C 576.624 0.668537 1.76567 0
M  V30 6253 O 575.981 -0.362662 1.7886 0
M  V30 6254 C 576.032 3.12661 1.81453 0
M  V30 6255 O 575.753 4.26378 1.00665 0
M  V30 6256 C 577.254 3.54548 2.66103 0
M  V30 6257 H 574.474 0.614624 0.269218 0
M  V30 6258 H 577.018 2.03581 0.193671 0
M  V30 6259 H 575.173 2.96088 2.49821 0
M  V30 6260 H 575.587 4.99041 1.61425 0
M  V30 6261 H 577.061 4.4673 3.24247 0
M  V30 6262 H 577.538 2.77853 3.40139 0
M  V30 6263 H 578.144 3.73674 2.03096 0
M  V30 6264 N 576.459 -0.456382 1.50847 0
M  V30 6265 C 577.407 -1.57318 1.71329 0
M  V30 6266 C 578.401 -1.59187 0.579287 0
M  V30 6267 O 579.607 -1.6316 0.76018 0
M  V30 6268 H 575.982 -0.5223 0.541024 0
M  V30 6269 H 577.953 -1.3721 2.64983 0
M  V30 6270 C 576.702 -2.95142 1.83811 0
M  V30 6271 H 576.025 -2.94428 2.70467 0
M  V30 6272 H 577.465 -3.72702 2.02161 0
M  V30 6273 C 575.924 -3.31636 0.593224 0
M  V30 6274 O 576.454 -4.00852 -0.260898 0
M  V30 6275 N 574.66 -2.87205 0.442902 0
M  V30 6276 H 574.207 -2.31051 1.13901 0
M  V30 6277 H 574.165 -3.11986 -0.38884 0
M  V30 6278 N 577.937 -1.40673 -0.710563 0
M  V30 6279 C 578.9 -1.4108 -1.80635 0
M  V30 6280 C 579.9 -0.303783 -1.57904 0
M  V30 6281 O 581.09 -0.562937 -1.64853 0
M  V30 6282 C 578.222 -1.20748 -3.18799 0
M  V30 6283 H 579.415 -2.38612 -1.81671 0
M  V30 6284 H 576.968 -1.26595 -0.916704 0
M  V30 6285 H 577.703 -0.239964 -3.23411 0
M  V30 6286 H 577.488 -2.00941 -3.36698 0
M  V30 6287 H 578.978 -1.23833 -3.98817 0
M  V30 6288 N 579.415 0.9433 -1.26252 0
M  V30 6289 C 580.345 2.05902 -1.10122 0
M  V30 6290 C 581.326 1.70099 -0.00700552 0
M  V30 6291 O 582.511 1.93377 -0.178641 0
M  V30 6292 C 579.641 3.39516 -0.731175 0
M  V30 6293 C 578.595 3.89372 -1.77688 0
M  V30 6294 C 577.921 5.19613 -1.26122 0
M  V30 6295 C 579.221 4.14489 -3.17799 0
M  V30 6296 H 580.915 2.19655 -2.03451 0
M  V30 6297 H 578.461 1.05548 -0.979576 0
M  V30 6298 H 580.414 4.17031 -0.605215 0
M  V30 6299 H 579.138 3.25733 0.23782 0
M  V30 6300 H 577.797 3.14036 -1.89148 0
M  V30 6301 H 577.445 5.02208 -0.282128 0
M  V30 6302 H 577.145 5.53939 -1.96023 0
M  V30 6303 H 578.669 5.99713 -1.14789 0
M  V30 6304 H 580.083 4.82625 -3.09428 0
M  V30 6305 H 578.48 4.60094 -3.85271 0
M  V30 6306 H 579.55 3.20347 -3.64014 0
M  V30 6307 N 580.893 1.08022 1.14757 0
M  V30 6308 C 582.139 0.808705 1.85978 0
M  V30 6309 C 582.472 -0.663764 1.82504 0
M  V30 6310 O 581.747 -1.48765 1.25296 0
M  V30 6311 C 582.03 1.32623 3.34788 0
M  V30 6312 C 581.883 2.86375 3.46856 0
M  V30 6313 C 583.202 0.948291 4.29762 0
M  V30 6314 H 580.321 0.295244 0.675278 0
M  V30 6315 H 582.963 1.33917 1.34783 0
M  V30 6316 H 581.113 0.875002 3.78518 0
M  V30 6317 H 582.785 3.39839 3.11941 0
M  V30 6318 H 581.028 3.24232 2.88194 0
M  V30 6319 H 581.699 3.17658 4.51439 0
M  V30 6320 H 584.175 1.33722 3.94028 0
M  V30 6321 H 583.051 1.33765 5.32352 0
M  V30 6322 H 583.312 -0.145094 4.41862 0
M  V30 6323 N 582.371 -1.3172 0.865308 0
M  V30 6324 C 583.321 -2.26157 0.289305 0
M  V30 6325 C 584.305 -1.50428 -0.570977 0
M  V30 6326 O 585.497 -1.71978 -0.418617 0
M  V30 6327 C 582.626 -3.39457 -0.512237 0
M  V30 6328 C 581.712 -4.22561 0.361028 0
M  V30 6329 N 582.103 -4.84501 1.45231 0
M  V30 6330 C 580.401 -4.45739 0.152641 0
M  V30 6331 C 581.102 -5.46586 1.99043 0
M  V30 6332 N 580.078 -5.28119 1.28809 0
M  V30 6333 H 583.88 -2.71581 1.12344 0
M  V30 6334 H 581.394 -1.45932 0.712565 0
M  V30 6335 H 583.391 -4.06133 -0.941379 0
M  V30 6336 H 582.051 -2.95577 -1.34404 0
M  V30 6337 H 583.062 -4.84293 1.83524 0
M  V30 6338 H 579.739 -4.1251 -0.643583 0
M  V30 6339 H 581.129 -6.05817 2.90577 0
M  V30 6340 N 583.85 -0.624285 -1.44708 0
M  V30 6341 C 585.075 -0.131171 -2.06985 0
M  V30 6342 C 585.5 1.18234 -1.46295 0
M  V30 6343 O 584.858 1.72375 -0.561842 0
M  V30 6344 C 584.906 -0.0226724 -3.60593 0
M  V30 6345 O 584.01 1.02314 -3.99507 0
M  V30 6346 H 583.351 -0.0816556 -0.65896 0
M  V30 6347 H 585.88 -0.859027 -1.85693 0
M  V30 6348 H 585.891 0.170138 -4.07645 0
M  V30 6349 H 584.566 -0.981685 -4.04148 0
M  V30 6350 H 583.143 0.805452 -3.64097 0
M  V30 6351 N 585.328 1.53329 -0.364422 0
M  V30 6352 C 586.238 2.29414 0.490552 0
M  V30 6353 C 587.254 1.35335 1.09363 0
M  V30 6354 O 588.43 1.68391 1.10483 0
M  V30 6355 C 585.495 3.06772 1.61529 0
M  V30 6356 C 584.556 4.16516 1.03986 0
M  V30 6357 C 583.789 4.90176 2.111 0
M  V30 6358 O 584.012 4.63687 3.32191 0
M  V30 6359 O 582.946 5.76134 1.74222 0
M  V30 6360 H 586.772 3.03428 -0.12856 0
M  V30 6361 H 584.357 1.48843 -0.128837 0
M  V30 6362 H 586.239 3.55082 2.26924 0
M  V30 6363 H 584.914 2.35596 2.21983 0
M  V30 6364 H 583.821 3.7246 0.349856 0
M  V30 6365 H 585.154 4.89855 0.4799 0
M  V30 6366 N 586.806 0.0935595 1.57322 0
M  V30 6367 C 588.031 -0.582324 1.99057 0
M  V30 6368 C 588.456 -1.61025 0.972242 0
M  V30 6369 O 587.814 -1.81202 -0.0594622 0
M  V30 6370 C 587.862 -1.20799 3.39765 0
M  V30 6371 O 586.966 -2.32382 3.40694 0
M  V30 6372 H 586.307 -0.147884 0.647323 0
M  V30 6373 H 588.837 0.174516 2.03854 0
M  V30 6374 H 588.847 -1.54966 3.77425 0
M  V30 6375 H 587.522 -0.454914 4.13405 0
M  V30 6376 H 586.099 -1.99845 3.14827 0
M  V30 6377 N 588.284 -1.56567 -0.180126 0
M  V30 6378 C 589.561 -1.7235 -0.924931 0
M  V30 6379 C 589.941 -0.652523 -2.00762 0
M  V30 6380 O 589.289 0.334115 -2.26044 0
M  V30 6381 C 589.499 -3.1523 -1.49771 0
M  V30 6382 C 590.847 -3.75921 -1.97405 0
M  V30 6383 O 591.871 -3.18452 -1.59583 0
M  V30 6384 O 590.73 -4.7681 -2.67048 0
M  V30 6385 H 587.824 -0.703502 -0.434758 0
M  V30 6386 H 590.37 -1.6886 -0.168647 0
M  V30 6387 H 589.142 -3.84656 -0.718027 0
M  V30 6388 H 588.765 -3.23009 -2.31842 0
M  V30 6389 N 589.762 0.448376 -1.51087 0
M  V30 6390 C 591.008 1.20049 -1.6345 0
M  V30 6391 C 591.341 1.91121 -0.344444 0
M  V30 6392 O 590.616 1.83125 0.655396 0
M  V30 6393 C 590.899 2.22624 -2.83038 0
M  V30 6394 C 590.752 1.55708 -4.21989 0
M  V30 6395 C 592.071 3.23718 -2.98152 0
M  V30 6396 H 589.19 0.435085 -0.59487 0
M  V30 6397 H 591.832 0.491183 -1.83541 0
M  V30 6398 H 589.982 2.83117 -2.66039 0
M  V30 6399 H 591.654 0.986367 -4.50631 0
M  V30 6400 H 589.897 0.859647 -4.25197 0
M  V30 6401 H 590.568 2.30357 -5.01637 0
M  V30 6402 H 593.044 2.73269 -3.13788 0
M  V30 6403 H 591.92 3.92795 -3.83411 0
M  V30 6404 H 592.181 3.89179 -2.09743 0
M  V30 6405 N 591.24 1.41047 0.703093 0
M  V30 6406 C 592.488 1.39723 1.4602 0
M  V30 6407 C 592.809 0.00461257 1.94999 0
M  V30 6408 O 592.079 -0.952292 1.71196 0
M  V30 6409 H 590.659 0.514281 0.541779 0
M  V30 6410 H 593.321 1.76217 0.832678 0
M  V30 6411 H 592.417 2.07982 2.32701 0
M  V30 6412 N 592.718 -0.936591 1.26751 0
M  V30 6413 C 593.666 -2.0573 1.08527 0
M  V30 6414 C 594.66 -1.69397 0.0108784 0
M  V30 6415 O 595.866 -1.79215 0.167915 0
M  V30 6416 H 592.241 -0.673691 0.334133 0
M  V30 6417 H 594.212 -2.1825 2.03493 0
M  V30 6418 C 592.961 -3.39738 0.739845 0
M  V30 6419 H 592.284 -3.68174 1.55845 0
M  V30 6420 H 593.724 -4.18955 0.652149 0
M  V30 6421 C 592.183 -3.32292 -0.555288 0
M  V30 6422 O 592.713 -3.68794 -1.59229 0
M  V30 6423 N 590.919 -2.85394 -0.54762 0
M  V30 6424 H 590.466 -2.55886 0.296667 0
M  V30 6425 H 590.424 -2.80795 -1.41427 0
M  V30 6426 N 594.196 -1.08629 -1.14182 0
M  V30 6427 C 595.612 -0.814363 -1.3726 0
M  V30 6428 C 595.812 0.575271 -1.93114 0
M  V30 6429 O 594.868 1.33165 -2.1453 0
M  V30 6430 C 596.181 -1.8989 -2.33157 0
M  V30 6431 C 597.729 -1.92518 -2.46791 0
M  V30 6432 C 598.204 -3.00092 -3.45989 0
M  V30 6433 N 599.695 -2.99279 -3.53534 0
M  V30 6434 C 600.43 -3.79158 -4.30147 0
M  V30 6435 N 599.926 -4.68923 -5.09983 0
M  V30 6436 N 601.719 -3.67451 -4.25366 0
M  V30 6437 H 593.87 -1.98232 -0.762758 0
M  V30 6438 H 596.133 -0.860383 -0.398051 0
M  V30 6439 H 595.839 -2.89809 -1.99257 0
M  V30 6440 H 595.713 -1.77013 -3.33086 0
M  V30 6441 H 598.1 -0.932425 -2.79982 0
M  V30 6442 H 598.181 -2.09473 -1.46816 0
M  V30 6443 H 597.825 -3.99575 -3.13532 0
M  V30 6444 H 597.755 -2.80382 -4.45751 0
M  V30 6445 H 600.246 -2.3422 -2.96563 0
M  V30 6446 H 600.559 -5.26475 -5.65724 0
M  V30 6447 H 598.904 -4.72964 -5.09244 0
M  V30 6448 H 602.095 -2.9669 -3.62067 0
M  V30 6449 H 602.268 -4.29944 -4.84822 0
M  V30 6450 N 595.674 1.31259 -0.872281 0
M  V30 6451 C 596.902 2.00795 -0.498907 0
M  V30 6452 C 597.317 1.65464 0.909238 0
M  V30 6453 O 596.674 0.885073 1.59602 0
M  V30 6454 C 596.725 3.55625 -0.649092 0
M  V30 6455 O 596.446 3.89692 -2.00179 0
M  V30 6456 C 597.947 4.42434 -0.277034 0
M  V30 6457 H 595.167 0.642299 -0.194145 0
M  V30 6458 H 597.711 1.67438 -1.17408 0
M  V30 6459 H 595.866 3.87394 -0.0214402 0
M  V30 6460 H 596.28 4.84407 -2.01122 0
M  V30 6461 H 597.754 5.50299 -0.433064 0
M  V30 6462 H 598.231 4.32146 0.783989 0
M  V30 6463 H 598.837 4.16086 -0.880483 0
M  V30 6464 N 597.152 0.631951 1.44375 0
M  V30 6465 C 598.062 -0.073674 2.34484 0
M  V30 6466 C 599.078 -0.834825 1.52665 0
M  V30 6467 O 600.254 -0.786902 1.85391 0
M  V30 6468 C 597.319 -1.04247 3.30656 0
M  V30 6469 C 596.38 -0.280602 4.28382 0
M  V30 6470 C 595.613 -1.20325 5.19959 0
M  V30 6471 O 595.836 -2.44199 5.15484 0
M  V30 6472 O 594.77 -0.687128 5.97965 0
M  V30 6473 H 598.596 0.667477 2.96274 0
M  V30 6474 H 596.181 0.392144 1.44162 0
M  V30 6475 H 598.063 -1.59981 3.89851 0
M  V30 6476 H 596.738 -1.76422 2.71398 0
M  V30 6477 H 595.645 0.319804 3.72731 0
M  V30 6478 H 596.978 0.401144 4.90563 0
M  V30 6479 N 598.631 -1.53133 0.372548 0
M  V30 6480 C 599.877 -2.01654 -0.215277 0
M  V30 6481 C 600.21 -1.25914 -1.47849 0
M  V30 6482 O 599.485 -0.3548 -1.91237 0
M  V30 6483 C 599.768 -3.56609 -0.500187 0
M  V30 6484 C 599.621 -4.43036 0.777145 0
M  V30 6485 C 600.94 -4.20528 -1.29786 0
M  V30 6486 H 598.059 -0.732991 -0.0767686 0
M  V30 6487 H 600.701 -1.83335 0.498814 0
M  V30 6488 H 598.851 -3.7235 -1.10852 0
M  V30 6489 H 600.523 -4.39079 1.41447 0
M  V30 6490 H 598.766 -4.10723 1.39604 0
M  V30 6491 H 599.437 -5.49424 0.532662 0
M  V30 6492 H 601.913 -4.08663 -0.783198 0
M  V30 6493 H 600.789 -5.28962 -1.46596 0
M  V30 6494 H 601.05 -3.77051 -2.30836 0
M  V30 6495 N 600.109 -0.101901 -1.5727 0
M  V30 6496 C 601.357 0.559091 -1.94213 0
M  V30 6497 C 601.678 1.68297 -0.984948 0
M  V30 6498 O 600.948 1.95863 -0.0381975 0
M  V30 6499 H 599.528 0.20952 -0.717015 0
M  V30 6500 H 602.19 -0.166831 -1.94185 0
M  V30 6501 H 601.286 0.96485 -2.96811 0
M  V30 6502 N 601.587 1.56661 0.17182 0
M  V30 6503 C 602.535 1.97289 1.23207 0
M  V30 6504 C 603.529 0.861566 1.45854 0
M  V30 6505 O 604.735 1.04668 1.4644 0
M  V30 6506 H 601.11 0.627681 0.41415 0
M  V30 6507 H 603.081 2.85662 0.862542 0
M  V30 6508 C 601.83 2.34849 2.564 0
M  V30 6509 H 601.153 3.19903 2.39797 0
M  V30 6510 H 602.593 2.67121 3.29276 0
M  V30 6511 C 601.052 1.19172 3.15119 0
M  V30 6512 O 601.582 0.479113 3.98833 0
M  V30 6513 N 599.788 0.962415 2.74201 0
M  V30 6514 H 599.335 1.54365 2.06226 0
M  V30 6515 H 599.293 0.190272 3.13824 0
M  V30 6516 N 603.065 -0.440357 1.51323 0
M  V30 6517 C 604.015 -1.53263 1.68803 0
M  V30 6518 C 604.999 -1.51494 0.542057 0
M  V30 6519 O 606.191 -1.57999 0.797839 0
M  V30 6520 C 603.32 -2.91479 1.8137 0
M  V30 6521 C 602.406 -2.98015 3.01742 0
M  V30 6522 N 602.797 -2.743 4.24962 0
M  V30 6523 C 601.095 -3.29173 3.00934 0
M  V30 6524 C 601.796 -2.86601 5.06197 0
M  V30 6525 N 600.772 -3.1814 4.40781 0
M  V30 6526 H 604.574 -1.33675 2.61741 0
M  V30 6527 H 602.088 -0.647616 1.48929 0
M  V30 6528 H 604.085 -3.70055 1.92002 0
M  V30 6529 H 602.745 -3.12089 0.896117 0
M  V30 6530 H 603.756 -2.49287 4.53957 0
M  V30 6531 H 600.433 -3.55577 2.18796 0
M  V30 6532 H 601.823 -2.72246 6.14274 0
M  V30 6533 N 604.543 -1.41418 -0.695603 0
M  V30 6534 C 605.768 -1.44329 -1.48942 0
M  V30 6535 C 606.193 -0.0501579 -1.88033 0
M  V30 6536 O 605.551 0.946598 -1.54626 0
M  V30 6537 C 605.599 -2.3578 -2.72837 0
M  V30 6538 O 604.703 -1.81482 -3.70322 0
M  V30 6539 H 604.044 -0.489838 -0.44828 0
M  V30 6540 H 606.574 -1.85878 -0.855014 0
M  V30 6541 H 606.584 -2.51654 -3.21145 0
M  V30 6542 H 605.259 -3.37005 -2.43722 0
M  V30 6543 H 603.836 -1.75058 -3.29255 0
M  V30 6544 N 606.021 0.929856 -1.27246 0
M  V30 6545 C 607.246 1.71674 -1.16374 0
M  V30 6546 C 607.671 1.86064 0.276024 0
M  V30 6547 O 607.029 1.3591 1.19992 0
M  V30 6548 C 607.077 3.09526 -1.85003 0
M  V30 6549 O 606.181 3.96142 -1.14653 0
M  V30 6550 H 605.522 0.52629 -0.404863 0
M  V30 6551 H 608.052 1.16381 -1.68276 0
M  V30 6552 H 608.062 3.59852 -1.92276 0
M  V30 6553 H 606.737 2.98369 -2.89739 0
M  V30 6554 H 605.314 3.54584 -1.15433 0
M  V30 6555 N 607.499 1.09233 1.13605 0
M  V30 6556 C 608.446 0.729921 2.18954 0
M  V30 6557 C 609.416 -0.287916 1.63586 0
M  V30 6558 O 610.601 -0.170003 1.90041 0
M  V30 6559 C 607.741 0.154489 3.44754 0
M  V30 6560 C 606.854 1.22613 4.14234 0
M  V30 6561 C 605.989 0.613657 5.27644 0
M  V30 6562 C 605.028 1.66674 5.8897 0
M  V30 6563 N 604.165 1.07545 6.93814 0
M  V30 6564 H 609.005 1.63257 2.49302 0
M  V30 6565 H 606.542 0.815693 1.22413 0
M  V30 6566 H 608.5 -0.196923 4.16735 0
M  V30 6567 H 607.13 -0.711433 3.14863 0
M  V30 6568 H 606.182 1.69485 3.40557 0
M  V30 6569 H 607.494 2.0238 4.55899 0
M  V30 6570 H 606.648 0.210976 6.06333 0
M  V30 6571 H 605.387 -0.215584 4.87223 0
M  V30 6572 H 604.392 2.07899 5.08978 0
M  V30 6573 H 605.617 2.49861 6.31464 0
M  V30 6574 H 603.563 0.267451 6.55455 0
M  V30 6575 H 603.48 1.81011 7.3401 0
M  V30 6576 H 604.748 0.698906 7.7636 0
M  V30 6577 N 608.977 -1.30795 0.87923 0
M  V30 6578 C 610.202 -2.01063 0.508769 0
M  V30 6579 C 610.627 -1.65508 -0.893803 0
M  V30 6580 O 609.985 -0.868616 -1.59138 0
M  V30 6581 C 610.033 -3.54054 0.683991 0
M  V30 6582 O 609.137 -4.11498 -0.272654 0
M  V30 6583 H 608.478 -0.632786 0.201191 0
M  V30 6584 H 611.008 -1.66776 1.18519 0
M  V30 6585 H 611.018 -4.03845 0.580798 0
M  V30 6586 H 609.693 -3.79271 1.70665 0
M  V30 6587 H 608.27 -3.72695 -0.12364 0
M  V30 6588 N 610.455 -0.639598 -1.44038 0
M  V30 6589 C 611.68 -0.153117 -2.06834 0
M  V30 6590 C 612.105 1.16676 -1.47541 0
M  V30 6591 O 611.463 1.71769 -0.580093 0
M  V30 6592 C 611.511 -0.0609169 -3.60549 0
M  V30 6593 O 610.615 0.98071 -4.00569 0
M  V30 6594 H 609.956 -0.0886402 -0.658057 0
M  V30 6595 H 612.486 -0.878674 -1.84771 0
M  V30 6596 H 612.496 0.126892 -4.07803 0
M  V30 6597 H 611.171 -1.0245 -4.03084 0
M  V30 6598 H 609.748 0.766789 -3.64931 0
M  V30 6599 N 611.933 1.52934 -0.380664 0
M  V30 6600 C 613.161 2.05886 0.204599 0
M  V30 6601 C 613.576 1.25305 1.41223 0
M  V30 6602 O 612.933 0.297504 1.80059 0
M  V30 6603 C 612.984 3.56764 0.583249 0
M  V30 6604 O 612.705 4.34292 -0.576398 0
M  V30 6605 C 614.206 4.2603 1.2253 0
M  V30 6606 H 611.426 0.670193 0.0328991 0
M  V30 6607 H 613.97 1.97148 -0.543397 0
M  V30 6608 H 612.125 3.65603 1.28115 0
M  V30 6609 H 612.539 5.23819 -0.267119 0
M  V30 6610 H 614.013 5.32868 1.44068 0
M  V30 6611 H 614.49 3.80698 2.19011 0
M  V30 6612 H 615.096 4.21485 0.568407 0
M  V30 6613 N 613.412 0.11024 1.57214 0
M  V30 6614 C 614.658 -0.550684 1.9518 0
M  V30 6615 C 614.991 -1.66885 0.993122 0
M  V30 6616 O 614.266 -1.94479 0.0287907 0
M  V30 6617 C 614.549 -1.09163 3.43155 0
M  V30 6618 C 614.402 0.0225198 4.49794 0
M  V30 6619 C 615.721 -1.98527 3.92778 0
M  V30 6620 H 612.84 -0.198706 0.709708 0
M  V30 6621 H 615.482 0.184024 1.89107 0
M  V30 6622 H 613.632 -1.71775 3.48462 0
M  V30 6623 H 615.304 0.657443 4.56591 0
M  V30 6624 H 613.547 0.686868 4.28328 0
M  V30 6625 H 614.218 -0.39706 5.5057 0
M  V30 6626 H 616.694 -1.458 3.8972 0
M  V30 6627 H 615.57 -2.33298 4.96853 0
M  V30 6628 H 615.831 -2.90846 3.32958 0
M  V30 6629 N 614.89 -1.56749 -0.16351 0
M  V30 6630 C 616.136 -1.82704 -0.880168 0
M  V30 6631 C 616.469 -0.689311 -1.81555 0
M  V30 6632 O 615.744 0.308224 -1.92042 0
M  V30 6633 C 616.027 -3.19084 -1.66905 0
M  V30 6634 C 615.88 -4.43397 -0.756269 0
M  V30 6635 C 617.199 -3.52493 -2.63509 0
M  V30 6636 H 614.318 -0.664608 -0.318535 0
M  V30 6637 H 616.96 -1.89438 -0.146036 0
M  V30 6638 H 615.11 -3.13475 -2.2949 0
M  V30 6639 H 616.782 -4.61079 -0.14269 0
M  V30 6640 H 615.025 -4.33752 -0.0647944 0
M  V30 6641 H 615.696 -5.3539 -1.34393 0
M  V30 6642 H 618.172 -3.58606 -2.11047 0
M  V30 6643 H 617.048 -4.48979 -3.15767 0
M  V30 6644 H 617.309 -2.77597 -3.44082 0
M  V30 6645 N 616.368 0.432326 -1.51554 0
M  V30 6646 C 617.3 1.54357 -1.6943 0
M  V30 6647 C 618.313 1.52311 -0.574897 0
M  V30 6648 O 619.502 1.56997 -0.849369 0
M  V30 6649 C 616.602 2.93273 -1.69836 0
M  V30 6650 C 615.775 3.19768 -2.98442 0
M  V30 6651 C 614.834 4.38433 -2.90969 0
M  V30 6652 O 613.86 4.36842 -3.64908 0
M  V30 6653 N 615.062 5.42276 -2.07163 0
M  V30 6654 H 617.827 1.39426 -2.65293 0
M  V30 6655 H 615.388 0.621331 -1.49503 0
M  V30 6656 H 617.38 3.70687 -1.62399 0
M  V30 6657 H 615.95 3.01777 -0.815456 0
M  V30 6658 H 615.17 2.30607 -3.19709 0
M  V30 6659 H 616.458 3.343 -3.83563 0
M  V30 6660 H 615.856 5.46407 -1.46477 0
M  V30 6661 H 614.413 6.18524 -2.05601 0
M  V30 6662 N 617.846 1.41785 0.688094 0
M  V30 6663 C 618.756 1.46596 1.83158 0
M  V30 6664 C 619.772 0.355862 1.70322 0
M  V30 6665 O 620.948 0.604737 1.92106 0
M  V30 6666 C 618.013 1.35322 3.192 0
M  V30 6667 C 617.074 2.56711 3.4409 0
M  V30 6668 C 616.307 2.45965 4.73642 0
M  V30 6669 O 616.53 1.48827 5.50642 0
M  V30 6670 O 615.464 3.35859 4.99482 0
M  V30 6671 H 619.29 2.43083 1.82056 0
M  V30 6672 H 616.875 1.23404 0.842126 0
M  V30 6673 H 618.757 1.31347 4.00407 0
M  V30 6674 H 617.432 0.419536 3.2097 0
M  V30 6675 H 616.339 2.66262 2.62784 0
M  V30 6676 H 617.672 3.48933 3.47141 0
M  V30 6677 N 619.324 -0.923095 1.27737 0
M  V30 6678 C 620.549 -1.71054 1.17283 0
M  V30 6679 C 620.974 -1.86208 -0.266153 0
M  V30 6680 O 620.332 -1.36545 -1.1927 0
M  V30 6681 C 620.38 -3.0854 1.86642 0
M  V30 6682 O 619.484 -3.95528 1.16752 0
M  V30 6683 H 618.825 -0.524136 0.407649 0
M  V30 6684 H 621.355 -1.15487 1.6889 0
M  V30 6685 H 621.365 -3.58828 1.94182 0
M  V30 6686 H 620.04 -2.96828 2.91317 0
M  V30 6687 H 618.617 -3.53967 1.17312 0
M  V30 6688 N 620.802 -1.09834 -1.13024 0
M  V30 6689 C 622.027 -0.85909 -1.88771 0
M  V30 6690 C 622.452 0.584402 -1.78791 0
M  V30 6691 O 621.81 1.41101 -1.13842 0
M  V30 6692 C 621.858 -1.30427 -3.36186 0
M  V30 6693 O 620.962 -0.465368 -4.09766 0
M  V30 6694 H 620.303 -0.310786 -0.586778 0
M  V30 6695 H 622.833 -1.46355 -1.42973 0
M  V30 6696 H 622.843 -1.2915 -3.8702 0
M  V30 6697 H 621.518 -2.3555 -3.42767 0
M  V30 6698 H 620.095 -0.542814 -3.68928 0
M  V30 6699 N 622.28 1.30327 -0.886154 0
M  V30 6700 C 623.227 2.28099 -0.352069 0
M  V30 6701 C 624.197 1.56433 0.558397 0
M  V30 6702 O 625.382 1.84492 0.486561 0
M  V30 6703 C 622.522 3.42456 0.426346 0
M  V30 6704 C 621.635 4.28938 -0.513472 0
M  V30 6705 C 620.77 5.30458 0.280657 0
M  V30 6706 C 619.809 6.0859 -0.654556 0
M  V30 6707 N 618.946 7.02022 0.104322 0
M  V30 6708 H 623.786 2.73166 -1.19097 0
M  V30 6709 H 621.323 1.34367 -0.598662 0
M  V30 6710 H 623.281 4.07518 0.893587 0
M  V30 6711 H 621.911 2.98455 1.22981 0
M  V30 6712 H 620.963 3.64173 -1.09921 0
M  V30 6713 H 622.275 4.83399 -1.2299 0
M  V30 6714 H 621.429 6.01273 0.8097 0
M  V30 6715 H 620.168 4.76693 1.03029 0
M  V30 6716 H 619.173 5.36651 -1.19522 0
M  V30 6717 H 620.398 6.64443 -1.4033 0
M  V30 6718 H 618.344 6.50645 0.836472 0
M  V30 6719 H 618.261 7.53979 -0.552453 0
M  V30 6720 H 619.529 7.77077 0.614069 0
M  V30 6721 N 623.758 0.647228 1.43697 0
M  V30 6722 C 625.006 0.157876 2.01482 0
M  V30 6723 C 625.327 -1.23039 1.51282 0
M  V30 6724 O 624.597 -1.82071 0.722982 0
M  V30 6725 H 623.177 0.0553745 0.744945 0
M  V30 6726 H 625.839 0.83755 1.75986 0
M  V30 6727 H 624.935 0.137895 3.11795 0
M  V30 6728 N 625.236 -1.5273 0.388769 0
M  V30 6729 C 626.464 -2.05992 -0.193677 0
M  V30 6730 C 626.879 -1.26053 -1.40557 0
M  V30 6731 O 626.236 -0.307049 -1.79898 0
M  V30 6732 C 626.287 -3.57068 -0.564321 0
M  V30 6733 O 626.008 -4.3398 0.599422 0
M  V30 6734 C 627.509 -4.26674 -1.20269 0
M  V30 6735 H 624.729 -0.670358 -0.0293445 0
M  V30 6736 H 627.273 -1.96857 0.553844 0
M  V30 6737 H 625.428 -3.66277 -1.26174 0
M  V30 6738 H 625.842 -5.2367 0.294895 0
M  V30 6739 H 627.316 -5.33625 -1.4124 0
M  V30 6740 H 627.793 -3.81854 -2.16989 0
M  V30 6741 H 628.399 -4.2178 -0.546047 0
M  V30 6742 N 626.714 -0.118576 -1.57153 0
M  V30 6743 C 628.125 0.40687 -1.82213 0
M  V30 6744 C 628.476 1.66636 -1.03571 0
M  V30 6745 O 627.601 2.14682 -0.272171 0
M  V30 6746 C 628.196 0.744949 -3.30509 0
M  V30 6747 C 626.755 1.21503 -3.5625 0
M  V30 6748 C 625.902 0.223511 -2.76398 0
M  V30 6749 H 628.853 -0.343712 -1.54933 0
M  V30 6750 H 628.874 1.6024 -3.45114 0
M  V30 6751 H 628.386 -0.171911 -3.87719 0
M  V30 6752 H 626.487 2.1488 -3.04396 0
M  V30 6753 H 626.6 1.16065 -4.64829 0
M  V30 6754 H 624.964 0.71046 -2.44591 0
M  V30 6755 H 625.747 -0.686439 -3.36367 0
M  V30 6756 N 628.193 1.56834 0.155195 0
M  V30 6757 C 629.609 1.51315 0.50755 0
M  V30 6758 C 629.809 0.825614 1.83809 0
M  V30 6759 O 628.865 0.39271 2.49427 0
M  V30 6760 C 630.178 2.96074 0.52542 0
M  V30 6761 C 631.726 3.06968 0.611505 0
M  V30 6762 C 632.201 4.53218 0.660115 0
M  V30 6763 N 633.692 4.5753 0.722564 0
M  V30 6764 C 634.427 5.68056 0.781023 0
M  V30 6765 N 633.923 6.88173 0.799327 0
M  V30 6766 N 635.716 5.56068 0.821278 0
M  V30 6767 H 627.867 1.9993 -0.717063 0
M  V30 6768 H 630.13 0.911507 -0.260496 0
M  V30 6769 H 629.836 3.49599 -0.383875 0
M  V30 6770 H 629.71 3.51587 1.36624 0
M  V30 6771 H 632.097 2.53468 1.51122 0
M  V30 6772 H 632.178 2.54513 -0.256306 0
M  V30 6773 H 631.822 5.07354 -0.23541 0
M  V30 6774 H 631.752 5.03447 1.5443 0
M  V30 6775 H 634.243 3.71054 0.716049 0
M  V30 6776 H 634.556 7.6816 0.845553 0
M  V30 6777 H 632.901 6.90751 0.767337 0
M  V30 6778 H 636.092 4.61142 0.804091 0
M  V30 6779 H 636.265 6.42223 0.863372 0
M  V30 6780 N 629.671 -0.424282 1.51781 0
M  V30 6781 C 630.896 -1.19928 1.6921 0
M  V30 6782 C 631.321 -1.8392 0.394355 0
M  V30 6783 O 630.679 -1.69371 -0.646778 0
M  V30 6784 C 630.727 -2.24937 2.81843 0
M  V30 6785 O 629.831 -3.3073 2.46356 0
M  V30 6786 H 629.172 -0.35078 0.563781 0
M  V30 6787 H 631.702 -0.499401 1.98412 0
M  V30 6788 H 631.712 -2.69512 3.06312 0
M  V30 6789 H 630.387 -1.77742 3.76006 0
M  V30 6790 H 628.964 -2.9154 2.32505 0
M  V30 6791 N 631.149 -1.42148 -0.680565 0
M  V30 6792 C 632.379 -1.45485 -1.46689 0
M  V30 6793 C 632.787 -0.0629451 -1.89095 0
M  V30 6794 O 632.13 0.931397 -1.58337 0
M  V30 6795 C 632.192 -2.31397 -2.75129 0
M  V30 6796 C 631.856 -3.79353 -2.54834 0
M  V30 6797 C 632.853 -4.71148 -2.19808 0
M  V30 6798 C 630.538 -4.23557 -2.70008 0
M  V30 6799 C 632.532 -6.05139 -2.00215 0
M  V30 6800 C 630.219 -5.57609 -2.50031 0
M  V30 6801 C 631.217 -6.48216 -2.15187 0
M  V30 6802 O 630.905 -7.79792 -1.95397 0
M  V30 6803 H 630.637 -0.497139 -0.458071 0
M  V30 6804 H 633.191 -1.87252 -0.844139 0
M  V30 6805 H 631.421 -1.84468 -3.39865 0
M  V30 6806 H 633.11 -2.26257 -3.36991 0
M  V30 6807 H 633.876 -4.38282 -2.07686 0
M  V30 6808 H 629.755 -3.53327 -2.96109 0
M  V30 6809 H 633.299 -6.75823 -1.72941 0
M  V30 6810 H 629.196 -5.9005 -2.61748 0
M  V30 6811 H 629.964 -7.91091 -2.10042 0
M  V30 6812 N 632.627 0.916307 -1.28225 0
M  V30 6813 C 633.557 2.0352 -1.14464 0
M  V30 6814 C 634.538 1.70045 -0.0430844 0
M  V30 6815 O 635.723 1.92954 -0.219619 0
M  V30 6816 C 632.853 3.37889 -0.803027 0
M  V30 6817 C 631.807 3.85516 -1.85908 0
M  V30 6818 C 631.133 5.1682 -1.37116 0
M  V30 6819 C 632.433 4.07655 -3.26519 0
M  V30 6820 H 634.127 2.1529 -2.08064 0
M  V30 6821 H 631.673 1.03446 -1.00174 0
M  V30 6822 H 633.626 4.15654 -0.693537 0
M  V30 6823 H 632.35 3.26164 0.168674 0
M  V30 6824 H 631.009 3.09953 -1.95767 0
M  V30 6825 H 630.657 5.01497 -0.38859 0
M  V30 6826 H 630.357 5.49657 -2.07728 0
M  V30 6827 H 631.881 5.97143 -1.27484 0
M  V30 6828 H 633.295 4.75953 -3.19596 0
M  V30 6829 H 631.692 4.51818 -3.94943 0
M  V30 6830 H 632.762 3.12553 -3.70727 0
M  V30 6831 N 634.105 1.10431 1.1244 0
M  V30 6832 C 635.068 0.756542 2.16354 0
M  V30 6833 C 636.068 -0.21899 1.59302 0
M  V30 6834 O 637.258 0.00415969 1.742 0
M  V30 6835 C 634.39 0.120612 3.40687 0
M  V30 6836 H 635.583 1.67696 2.48632 0
M  V30 6837 H 633.136 0.904832 1.27446 0
M  V30 6838 H 633.871 -0.810536 3.14008 0
M  V30 6839 H 633.656 0.822693 3.83372 0
M  V30 6840 H 635.146 -0.106945 4.17463 0
M  V30 6841 N 635.583 -1.29855 0.893053 0
M  V30 6842 C 636.808 -2.00512 0.530066 0
M  V30 6843 C 637.233 -1.66446 -0.876199 0
M  V30 6844 O 636.591 -0.885446 -1.58207 0
M  V30 6845 C 636.639 -3.53308 0.721505 0
M  V30 6846 O 635.743 -4.11764 -0.228994 0
M  V30 6847 H 635.084 -0.630617 0.207891 0
M  V30 6848 H 637.614 -1.6551 1.20282 0
M  V30 6849 H 637.624 -4.03206 0.623599 0
M  V30 6850 H 636.299 -3.77439 1.74678 0
M  V30 6851 H 634.876 -3.72805 -0.0841034 0
M  V30 6852 N 637.061 -0.65484 -1.43351 0
M  V30 6853 C 638.286 -0.175046 -2.0666 0
M  V30 6854 C 638.711 1.15104 -1.4877 0
M  V30 6855 O 638.069 1.71144 -0.598279 0
M  V30 6856 C 638.117 -0.0991544 -3.60464 0
M  V30 6857 O 637.221 0.938169 -4.01587 0
M  V30 6858 H 636.562 -0.0956148 -0.65708 0
M  V30 6859 H 639.092 -0.898222 -1.83829 0
M  V30 6860 H 639.102 0.083632 -4.07914 0
M  V30 6861 H 637.777 -1.06719 -4.01975 0
M  V30 6862 H 636.354 0.72804 -3.65724 0
M  V30 6863 N 638.539 1.52521 -0.396863 0
M  V30 6864 C 639.95 1.86547 0.0754868 0
M  V30 6865 C 640.301 1.31621 1.45501 0
M  V30 6866 O 639.426 0.650563 2.0639 0
M  V30 6867 C 640.021 3.38495 0.143754 0
M  V30 6868 C 638.58 3.72205 0.560413 0
M  V30 6869 C 637.727 2.75954 -0.272856 0
M  V30 6870 H 640.678 1.46323 -0.614434 0
M  V30 6871 H 640.699 3.68153 0.961425 0
M  V30 6872 H 640.211 3.78442 -0.860415 0
M  V30 6873 H 638.312 3.3783 1.57167 0
M  V30 6874 H 638.425 4.78074 0.313314 0
M  V30 6875 H 636.789 2.53339 0.263 0
M  V30 6876 H 637.572 3.1874 -1.27515 0
M  V30 6877 N 640.017 0.126909 1.57088 0
M  V30 6878 C 640.965 -0.837618 2.16995 0
M  V30 6879 C 641.959 -1.26974 1.12133 0
M  V30 6880 O 643.165 -1.24056 1.30423 0
M  V30 6881 H 639.54 -0.288256 0.694559 0
M  V30 6882 H 641.511 -0.307957 2.96807 0
M  V30 6883 C 640.26 -2.07474 2.79016 0
M  V30 6884 H 639.583 -1.75117 3.59408 0
M  V30 6885 H 641.023 -2.72949 3.24461 0
M  V30 6886 C 639.482 -2.86967 1.76498 0
M  V30 6887 O 640.012 -3.82625 1.22316 0
M  V30 6888 N 638.218 -2.51111 1.46258 0
M  V30 6889 H 637.765 -1.73389 1.90509 0
M  V30 6890 H 637.723 -3.04594 0.779085 0
M  V30 6891 N 641.495 -1.56914 -0.146875 0
M  V30 6892 C 642.906 -1.72799 -0.706928 0
M  V30 6893 C 643.257 -0.741329 -1.81656 0
M  V30 6894 O 642.382 0.0920162 -2.16204 0
M  V30 6895 C 642.977 -3.13317 -1.28911 0
M  V30 6896 C 641.536 -3.30803 -1.79573 0
M  V30 6897 C 640.683 -2.68725 -0.684252 0
M  V30 6898 H 643.634 -1.58504 0.0787931 0
M  V30 6899 H 643.655 -3.13323 -2.15891 0
M  V30 6900 H 643.167 -3.85104 -0.481284 0
M  V30 6901 H 641.268 -2.64012 -2.62923 0
M  V30 6902 H 641.381 -4.38754 -1.92436 0
M  V30 6903 H 639.745 -2.29196 -1.11091 0
M  V30 6904 H 640.528 -3.43117 0.112134 0
M  V30 6905 N 642.974 0.416227 -1.52004 0
M  V30 6906 C 644.221 1.16383 -1.65714 0
M  V30 6907 C 644.549 1.9068 -0.383594 0
M  V30 6908 O 643.804 1.85174 0.633185 0
M  V30 6909 C 644.103 2.18923 -2.82502 0
M  V30 6910 C 643.769 1.61485 -4.20991 0
M  V30 6911 C 642.431 1.45545 -4.58661 0
M  V30 6912 C 644.783 1.19468 -5.07323 0
M  V30 6913 C 642.111 0.860937 -5.80349 0
M  V30 6914 C 644.463 0.614386 -6.29609 0
M  V30 6915 C 643.127 0.442056 -6.66035 0
M  V30 6916 H 642.397 0.425875 -0.606392 0
M  V30 6917 H 645.044 0.45199 -1.8609 0
M  V30 6918 H 643.349 2.96225 -2.56433 0
M  V30 6919 H 645.046 2.76628 -2.90307 0
M  V30 6920 H 641.636 1.74873 -3.91302 0
M  V30 6921 H 645.82 1.30596 -4.78809 0
M  V30 6922 H 641.076 0.715372 -6.072 0
M  V30 6923 H 645.25 0.280393 -6.95835 0
M  V30 6924 H 642.877 -0.0207218 -7.60197 0
M  V30 6925 N 644.452 1.42507 0.673017 0
M  V30 6926 C 645.677 1.4668 1.46627 0
M  V30 6927 C 646.102 0.080066 1.8793 0
M  V30 6928 O 645.46 -0.921879 1.56112 0
M  V30 6929 C 645.508 2.40091 2.69051 0
M  V30 6930 O 644.612 1.8735 3.67387 0
M  V30 6931 H 643.953 0.496908 0.44043 0
M  V30 6932 H 646.483 1.87215 0.825334 0
M  V30 6933 H 646.493 2.56731 3.17101 0
M  V30 6934 H 645.168 3.4084 2.3833 0
M  V30 6935 H 643.745 1.80274 3.26429 0
M  V30 6936 N 645.93 -0.909495 1.28709 0
M  V30 6937 C 647.346 -1.18862 1.06508 0
M  V30 6938 C 647.546 -2.00604 -0.189864 0
M  V30 6939 O 646.602 -2.36281 -0.890355 0
M  V30 6940 C 647.915 -1.91908 2.31499 0
M  V30 6941 C 649.463 -2.04773 2.36721 0
M  V30 6942 C 649.938 -2.81228 3.6149 0
M  V30 6943 N 651.429 -2.88787 3.62155 0
M  V30 6944 C 652.164 -3.48455 4.55375 0
M  V30 6945 N 651.66 -4.09369 5.58918 0
M  V30 6946 N 653.453 -3.46035 4.42963 0
M  V30 6947 H 645.604 -0.363867 2.0926 0
M  V30 6948 H 647.867 -0.223649 0.921241 0
M  V30 6949 H 647.573 -1.39275 3.22948 0
M  V30 6950 H 647.447 -2.92436 2.38245 0
M  V30 6951 H 649.834 -2.56585 1.45767 0
M  V30 6952 H 649.915 -1.03408 2.33967 0
M  V30 6953 H 649.559 -2.30094 4.5279 0
M  V30 6954 H 649.489 -3.82917 3.61499 0
M  V30 6955 H 651.98 -2.45514 2.87283 0
M  V30 6956 H 652.293 -4.52891 6.26187 0
M  V30 6957 H 650.638 -4.0786 5.62739 0
M  V30 6958 H 653.829 -2.9766 3.6127 0
M  V30 6959 H 654.002 -3.92244 5.15799 0
M  V30 6960 N 647.408 -1.11026 -1.11852 0
M  V30 6961 C 648.371 -0.768006 -2.1595 0
M  V30 6962 C 649.371 0.210538 -1.59416 0
M  V30 6963 O 650.561 -0.0133978 -1.74195 0
M  V30 6964 C 647.693 -0.138678 -3.40618 0
M  V30 6965 H 648.886 -1.69012 -2.4774 0
M  V30 6966 H 646.439 -0.911578 -1.26964 0
M  V30 6967 H 647.174 0.793872 -3.14433 0
M  V30 6968 H 646.959 -0.843012 -3.8293 0
M  V30 6969 H 648.449 0.0848039 -4.17514 0
M  V30 6970 N 648.886 1.2938 -0.899927 0
M  V30 6971 C 649.834 2.29675 -0.367698 0
M  V30 6972 C 650.828 1.60787 0.533282 0
M  V30 6973 O 652.034 1.75126 0.416058 0
M  V30 6974 H 648.409 0.745284 -0.100279 0
M  V30 6975 H 650.38 2.72008 -1.22696 0
M  V30 6976 C 649.129 3.45512 0.389483 0
M  V30 6977 H 648.452 3.98713 -0.294575 0
M  V30 6978 H 649.892 4.17725 0.726744 0
M  V30 6979 C 648.351 2.969 1.59223 0
M  V30 6980 O 648.881 2.98195 2.69152 0
M  V30 6981 N 647.087 2.52728 1.43447 0
M  V30 6982 H 646.634 2.51873 0.540148 0
M  V30 6983 H 646.592 2.20561 2.24054 0
M  V30 6984 N 650.364 0.662433 1.43002 0
M  V30 6985 C 651.327 -0.0142016 2.29196 0
M  V30 6986 C 652.327 -0.741394 1.42688 0
M  V30 6987 O 653.517 -0.581257 1.64216 0
M  V30 6988 C 650.649 -1.03084 3.24941 0
M  V30 6989 H 651.842 0.7443 2.90517 0
M  V30 6990 H 649.395 0.424133 1.50435 0
M  V30 6991 H 650.13 -1.81826 2.68533 0
M  V30 6992 H 649.915 -0.512946 3.8873 0
M  V30 6993 H 651.405 -1.50308 3.89612 0
M  V30 6994 N 651.842 -1.52309 0.404946 0
M  V30 6995 C 652.805 -2.25491 -0.410651 0
M  V30 6996 C 653.805 -1.27704 -0.977154 0
M  V30 6997 O 654.995 -1.51679 -0.856691 0
M  V30 6998 C 652.127 -3.02197 -1.57765 0
M  V30 6999 H 653.32 -2.99015 0.230277 0
M  V30 7000 H 650.873 -1.55506 0.157377 0
M  V30 7001 H 651.608 -2.33013 -2.25556 0
M  V30 7002 H 651.393 -3.73987 -1.17797 0
M  V30 7003 H 652.883 -3.57719 -2.15469 0
M  V30 7004 N 653.32 -0.135238 -1.57019 0
M  V30 7005 C 654.23 0.822226 -2.19719 0
M  V30 7006 C 655.246 1.28057 -1.17802 0
M  V30 7007 O 656.422 1.3402 -1.50335 0
M  V30 7008 C 653.487 2.0484 -2.79717 0
M  V30 7009 C 652.548 1.64042 -3.96723 0
M  V30 7010 C 651.781 2.80814 -4.53849 0
M  V30 7011 O 652.004 3.967 -4.0986 0
M  V30 7012 O 650.938 2.56963 -5.44292 0
M  V30 7013 H 654.764 0.318552 -3.02025 0
M  V30 7014 H 652.349 0.0912021 -1.49121 0
M  V30 7015 H 654.231 2.76622 -3.17897 0
M  V30 7016 H 652.906 2.54182 -2.00432 0
M  V30 7017 H 651.813 0.893182 -3.63281 0
M  V30 7018 H 653.146 1.19426 -4.77492 0
M  V30 7019 N 654.798 1.5699 0.138552 0
M  V30 7020 C 656.026 1.87976 0.864437 0
M  V30 7021 C 656.441 0.724372 1.74351 0
M  V30 7022 O 655.798 -0.305575 1.79924 0
M  V30 7023 C 655.849 3.18276 1.71414 0
M  V30 7024 O 655.57 4.29365 0.870487 0
M  V30 7025 C 657.071 3.62834 2.54688 0
M  V30 7026 H 654.291 0.622878 0.249528 0
M  V30 7027 H 656.835 2.04094 0.128805 0
M  V30 7028 H 654.99 3.03886 2.40274 0
M  V30 7029 H 655.404 5.03924 1.45466 0
M  V30 7030 H 656.878 4.5682 3.0987 0
M  V30 7031 H 657.355 2.88533 3.31127 0
M  V30 7032 H 657.961 3.79946 1.91105 0
M  V30 7033 N 656.276 -0.40816 1.52223 0
M  V30 7034 C 657.525 -1.15212 1.65557 0
M  V30 7035 C 657.838 -1.9163 0.392096 0
M  V30 7036 O 659.044 -2.68458 0.405256 0
M  V30 7037 C 657.5 -2.09691 2.92502 0
M  V30 7038 C 657.108 -1.38785 4.25961 0
M  V30 7039 C 658.852 -2.8434 3.152 0
M  V30 7040 C 656.759 -2.31919 5.44029 0
M  V30 7041 H 655.689 -0.433776 0.616729 0
M  V30 7042 H 658.34 -0.4165 1.78711 0
M  V30 7043 H 656.722 -2.8681 2.7305 0
M  V30 7044 H 657.896 -0.670248 4.55899 0
M  V30 7045 H 656.211 -0.761741 4.09373 0
M  V30 7046 H 658.808 -3.54166 4.00587 0
M  V30 7047 H 659.151 -3.47344 2.29473 0
M  V30 7048 H 659.684 -2.14321 3.35129 0
M  V30 7049 H 656.423 -1.7356 6.32105 0
M  V30 7050 H 655.943 -3.0165 5.18428 0
M  V30 7051 H 657.622 -2.92424 5.77146 0
M  V30 7052 N 657.755 -1.42862 -0.66545 0
M  V30 7053 C 658.98 -1.47456 -1.45848 0
M  V30 7054 C 659.405 -0.0900312 -1.87884 0
M  V30 7055 O 658.763 0.913587 -1.56599 0
M  V30 7056 C 658.811 -2.41514 -2.67774 0
M  V30 7057 O 657.915 -1.89296 -3.66389 0
M  V30 7058 H 657.256 -0.499236 -0.437789 0
M  V30 7059 H 659.786 -1.8765 -0.815394 0
M  V30 7060 H 659.796 -2.58409 -3.15735 0
M  V30 7061 H 658.471 -3.42099 -2.36519 0
M  V30 7062 H 657.048 -1.82003 -3.25468 0
M  V30 7063 N 659.233 0.902656 -1.29189 0
M  V30 7064 C 660.196 1.98797 -1.14071 0
M  V30 7065 C 661.196 1.60615 -0.0770549 0
M  V30 7066 O 662.386 1.71165 -0.323753 0
M  V30 7067 C 659.518 3.32688 -0.743739 0
M  V30 7068 H 660.711 2.13637 -2.10473 0
M  V30 7069 H 658.264 1.08678 -1.12334 0
M  V30 7070 H 658.999 3.23549 0.220554 0
M  V30 7071 H 658.784 3.61765 -1.51223 0
M  V30 7072 H 660.274 4.12337 -0.660935 0
M  V30 7073 N 660.711 1.11618 1.11262 0
M  V30 7074 C 661.674 0.779447 2.15539 0
M  V30 7075 C 662.674 -0.202081 1.59525 0
M  V30 7076 O 663.864 0.0226356 1.74185 0
M  V30 7077 C 660.996 0.15674 3.40539 0
M  V30 7078 H 662.189 1.70324 2.4684 0
M  V30 7079 H 659.742 0.918298 1.26479 0
M  V30 7080 H 660.477 -0.777186 3.1485 0
M  V30 7081 H 660.262 0.863308 3.82478 0
M  V30 7082 H 661.752 -0.062661 4.17553 0
M  V30 7083 N 662.189 -1.289 0.906776 0
M  V30 7084 C 663.605 -1.47733 0.603902 0
M  V30 7085 C 663.805 -1.82568 -0.852702 0
M  V30 7086 O 662.861 -1.92642 -1.63234 0
M  V30 7087 C 664.174 -2.58522 1.53581 0
M  V30 7088 C 665.722 -2.72394 1.54177 0
M  V30 7089 C 666.197 -3.86318 2.46013 0
M  V30 7090 N 667.688 -3.93661 2.441 0
M  V30 7091 C 668.423 -4.81177 3.11859 0
M  V30 7092 N 667.919 -5.73333 3.88923 0
M  V30 7093 N 669.712 -4.74728 3.00981 0
M  V30 7094 H 661.863 -1.04567 1.84877 0
M  V30 7095 H 664.126 -0.520118 0.792579 0
M  V30 7096 H 663.832 -2.39667 2.57396 0
M  V30 7097 H 663.706 -3.55475 1.26165 0
M  V30 7098 H 666.093 -2.90641 0.511034 0
M  V30 7099 H 666.174 -1.75993 1.85634 0
M  V30 7100 H 665.818 -3.68826 3.49185 0
M  V30 7101 H 665.748 -4.82102 2.11862 0
M  V30 7102 H 668.239 -3.27751 1.88115 0
M  V30 7103 H 668.552 -6.36923 4.37663 0
M  V30 7104 H 666.897 -5.73196 3.93029 0
M  V30 7105 H 670.088 -4.01722 2.40286 0
M  V30 7106 H 670.261 -5.42719 3.54062 0
M  V30 7107 N 663.667 -0.670007 -1.42649 0
M  V30 7108 C 664.63 0.00204659 -2.292 0
M  V30 7109 C 665.63 0.733817 -1.4308 0
M  V30 7110 O 666.82 0.57254 -1.64522 0
M  V30 7111 C 663.952 1.01359 -3.25483 0
M  V30 7112 H 665.145 -0.759696 -2.90118 0
M  V30 7113 H 662.698 -0.432105 -1.50208 0
M  V30 7114 H 663.433 1.80399 -2.69493 0
M  V30 7115 H 663.218 0.492323 -3.88997 0
M  V30 7116 H 664.708 1.4824 -3.90403 0
M  V30 7117 N 665.145 1.52092 -0.413018 0
M  V30 7118 C 666.075 2.30021 0.401567 0
M  V30 7119 C 667.056 1.34395 1.04269 0
M  V30 7120 O 668.241 1.63304 1.05097 0
M  V30 7121 C 665.371 3.12447 1.51638 0
M  V30 7122 C 664.325 4.16153 1.00005 0
M  V30 7123 C 663.651 4.86948 2.20875 0
M  V30 7124 C 664.951 5.22275 0.0513757 0
M  V30 7125 H 666.645 2.98365 -0.248704 0
M  V30 7126 H 664.191 1.4349 -0.121052 0
M  V30 7127 H 666.144 3.65733 2.09326 0
M  V30 7128 H 664.868 2.41879 2.19458 0
M  V30 7129 H 663.527 3.63882 0.445549 0
M  V30 7130 H 663.175 4.12905 2.8726 0
M  V30 7131 H 662.875 5.57057 1.86978 0
M  V30 7132 H 664.399 5.43048 2.79162 0
M  V30 7133 H 665.813 5.70778 0.537176 0
M  V30 7134 H 664.21 5.9977 -0.198977 0
M  V30 7135 H 665.28 4.76611 -0.892736 0
M  V30 7136 N 666.623 0.143563 1.56945 0
M  V30 7137 C 668.034 -0.37783 1.82837 0
M  V30 7138 C 668.385 -1.64967 1.06209 0
M  V30 7139 O 667.51 -2.14221 0.306291 0
M  V30 7140 C 668.105 -0.692274 3.31652 0
M  V30 7141 C 666.664 -1.1582 3.58138 0
M  V30 7142 C 665.811 -0.17951 2.76718 0
M  V30 7143 H 668.762 0.368317 1.54367 0
M  V30 7144 H 668.783 -1.54729 3.47619 0
M  V30 7145 H 668.295 0.233572 3.87397 0
M  V30 7146 H 666.396 -2.10011 3.07776 0
M  V30 7147 H 666.509 -1.08655 4.66616 0
M  V30 7148 H 664.873 -0.671458 2.4569 0
M  V30 7149 H 665.656 0.739865 3.35233 0
M  V30 7150 N 668.101 -1.57061 -0.130224 0
M  V30 7151 C 669.326 -1.88802 -0.858409 0
M  V30 7152 C 669.751 -0.734353 -1.73173 0
M  V30 7153 O 669.109 0.315529 -1.78533 0
M  V30 7154 C 669.157 -3.19228 -1.67708 0
M  V30 7155 O 668.261 -3.04343 -2.78297 0
M  V30 7156 H 667.602 -0.619849 -0.238083 0
M  V30 7157 H 670.132 -2.04271 -0.115995 0
M  V30 7158 H 670.142 -3.51669 -2.06864 0
M  V30 7159 H 668.817 -4.02793 -1.0359 0
M  V30 7160 H 667.394 -2.83346 -2.42425 0
M  V30 7161 N 669.579 0.400081 -1.52437 0
M  V30 7162 C 670.542 1.4707 -1.75793 0
M  V30 7163 C 671.542 1.48036 -0.627856 0
M  V30 7164 O 672.732 1.49401 -0.895817 0
M  V30 7165 C 669.864 2.86427 -1.84858 0
M  V30 7166 H 671.057 1.27649 -2.71377 0
M  V30 7167 H 668.61 0.631141 -1.42991 0
M  V30 7168 H 669.345 3.11207 -0.912194 0
M  V30 7169 H 669.13 2.87128 -2.6702 0
M  V30 7170 H 670.62 3.64023 -2.04638 0
M  V30 7171 N 671.057 1.43213 0.657864 0
M  V30 7172 C 672.282 1.48227 1.45064 0
M  V30 7173 C 672.707 0.0999939 1.87834 0
M  V30 7174 O 672.065 -0.905269 1.57081 0
M  V30 7175 C 672.113 2.42931 2.6649 0
M  V30 7176 O 671.217 1.91237 3.6538 0
M  V30 7177 H 670.558 0.501551 0.435135 0
M  V30 7178 H 673.088 1.8808 0.805431 0
M  V30 7179 H 673.098 2.6008 3.1436 0
M  V30 7180 H 671.773 3.43348 2.34701 0
M  V30 7181 H 670.35 1.83726 3.24498 0
M  V30 7182 N 672.536 -0.895792 1.29666 0
M  V30 7183 C 673.947 -1.46195 1.1612 0
M  V30 7184 C 674.298 -1.94699 -0.242195 0
M  V30 7185 O 673.423 -1.8406 -1.13802 0
M  V30 7186 C 674.018 -2.65718 2.10189 0
M  V30 7187 C 672.577 -3.18458 2.00653 0
M  V30 7188 C 671.724 -1.91149 2.00891 0
M  V30 7189 H 674.675 -0.706756 1.42094 0
M  V30 7190 H 674.696 -3.4158 1.6764 0
M  V30 7191 H 674.208 -2.30386 3.12321 0
M  V30 7192 H 672.309 -3.58474 1.01623 0
M  V30 7193 H 672.422 -3.82491 2.88509 0
M  V30 7194 H 670.786 -2.09021 1.45542 0
M  V30 7195 H 671.569 -1.58089 3.04734 0
M  V30 7196 N 674.014 -1.12206 -1.10668 0
M  V30 7197 C 675.242 -0.898635 -1.86366 0
M  V30 7198 C 675.657 0.551991 -1.80551 0
M  V30 7199 O 675.014 1.38152 -1.19249 0
M  V30 7200 C 675.065 -1.36199 -3.34861 0
M  V30 7201 O 674.786 -2.75576 -3.40573 0
M  V30 7202 C 676.287 -1.17515 -4.2744 0
M  V30 7203 H 673.507 -0.321281 -0.589084 0
M  V30 7204 H 676.051 -1.49142 -1.39918 0
M  V30 7205 H 674.206 -0.81249 -3.78784 0
M  V30 7206 H 674.62 -2.95851 -4.33096 0
M  V30 7207 H 676.094 -1.54827 -5.29842 0
M  V30 7208 H 676.571 -0.115486 -4.39048 0
M  V30 7209 H 677.177 -1.71203 -3.89319 0
M  V30 7210 N 675.492 1.28418 -0.913599 0
M  V30 7211 C 676.717 1.99643 -0.561899 0
M  V30 7212 C 677.142 1.67819 0.849608 0
M  V30 7213 O 676.5 0.910503 1.56779 0
M  V30 7214 C 676.548 3.52116 -0.777622 0
M  V30 7215 O 675.652 4.12076 0.163457 0
M  V30 7216 H 674.993 0.627229 -0.217898 0
M  V30 7217 H 677.523 1.63575 -1.229 0
M  V30 7218 H 677.533 4.02163 -0.687666 0
M  V30 7219 H 676.208 3.74613 -1.8066 0
M  V30 7220 H 674.785 3.72892 0.0247827 0
M  V30 7221 N 676.97 0.677563 1.42291 0
M  V30 7222 C 678.219 0.198173 2.00724 0
M  V30 7223 C 678.532 -1.20325 1.54211 0
M  V30 7224 O 679.738 -1.77916 2.05081 0
M  V30 7225 C 678.194 0.303432 3.58619 0
M  V30 7226 C 677.802 1.70909 4.14119 0
M  V30 7227 C 679.546 -0.117103 4.24338 0
M  V30 7228 C 677.453 1.76696 5.64387 0
M  V30 7229 H 676.383 0.070329 0.750713 0
M  V30 7230 H 679.034 0.843147 1.62982 0
M  V30 7231 H 677.416 -0.409482 3.93877 0
M  V30 7232 H 678.59 2.44931 3.90315 0
M  V30 7233 H 676.905 2.07771 3.6086 0
M  V30 7234 H 679.502 -0.0940471 5.34617 0
M  V30 7235 H 679.845 -1.15283 4.00019 0
M  V30 7236 H 680.378 0.5449 3.9405 0
M  V30 7237 H 677.117 2.7826 5.93508 0
M  V30 7238 H 676.637 1.07034 5.90173 0
M  V30 7239 H 678.316 1.52166 6.28852 0
M  V30 7240 N 678.448 -1.51871 0.421078 0
M  V30 7241 C 679.864 -1.59435 0.0725398 0
M  V30 7242 C 680.064 -1.43315 -1.41644 0
M  V30 7243 O 679.12 -1.26614 -2.18461 0
M  V30 7244 C 680.433 -2.9509 0.578132 0
M  V30 7245 C 681.981 -3.08356 0.537149 0
M  V30 7246 C 682.456 -4.4651 1.01945 0
M  V30 7247 N 683.947 -4.52784 0.976758 0
M  V30 7248 C 684.682 -5.57976 1.32099 0
M  V30 7249 N 684.178 -6.70664 1.73727 0
M  V30 7250 N 685.971 -5.48248 1.2402 0
M  V30 7251 H 678.122 -1.60595 1.39007 0
M  V30 7252 H 680.385 -0.756138 0.571803 0
M  V30 7253 H 680.091 -3.12205 1.61929 0
M  V30 7254 H 679.965 -3.772 -0.00578374 0
M  V30 7255 H 682.352 -2.90919 -0.494991 0
M  V30 7256 H 682.433 -2.28125 1.15727 0
M  V30 7257 H 682.077 -4.64692 2.04997 0
M  V30 7258 H 682.007 -5.25256 0.376023 0
M  V30 7259 H 684.498 -3.71898 0.670851 0
M  V30 7260 H 684.811 -7.46932 1.98274 0
M  V30 7261 H 683.156 -6.71914 1.77641 0
M  V30 7262 H 686.347 -4.59095 0.913756 0
M  V30 7263 H 686.52 -6.30119 1.51176 0
M  V30 7264 N 679.926 -0.151884 -1.56866 0
M  V30 7265 C 681.154 0.504813 -2.00647 0
M  V30 7266 C 681.569 1.58098 -1.03201 0
M  V30 7267 O 680.926 1.82476 -0.0297814 0
M  V30 7268 C 680.977 1.10099 -3.44326 0
M  V30 7269 O 680.698 0.0678021 -4.38048 0
M  V30 7270 C 682.199 1.83782 -4.03409 0
M  V30 7271 H 679.419 0.130989 -0.65809 0
M  V30 7272 H 681.963 -0.247903 -2.02992 0
M  V30 7273 H 680.118 1.8043 -3.42817 0
M  V30 7274 H 680.532 0.505237 -5.22061 0
M  V30 7275 H 682.006 2.2078 -5.05925 0
M  V30 7276 H 682.483 2.72557 -3.44397 0
M  V30 7277 H 683.089 1.18138 -4.08563 0
M  V30 7278 N 681.404 1.57128 0.121893 0
M  V30 7279 C 682.652 1.84335 0.828548 0
M  V30 7280 C 682.973 0.736632 1.80551 0
M  V30 7281 O 682.243 -0.23962 1.94429 0
M  V30 7282 H 680.823 0.680108 0.30897 0
M  V30 7283 H 683.485 1.9459 0.109906 0
M  V30 7284 H 682.581 2.80152 1.37554 0
M  V30 7285 N 682.882 -0.391992 1.52647 0
M  V30 7286 C 684.112 -1.15692 1.71169 0
M  V30 7287 C 684.52 -1.84285 0.428444 0
M  V30 7288 O 683.863 -1.73393 -0.606669 0
M  V30 7289 C 683.925 -2.25033 2.80357 0
M  V30 7290 C 683.589 -1.76433 4.21569 0
M  V30 7291 C 684.586 -1.2427 5.0483 0
M  V30 7292 C 682.271 -1.82746 4.67877 0
M  V30 7293 C 684.265 -0.790657 6.32477 0
M  V30 7294 C 681.952 -1.37153 5.9551 0
M  V30 7295 C 682.95 -0.853997 6.7764 0
M  V30 7296 O 682.638 -0.404708 8.02881 0
M  V30 7297 H 682.37 -0.35297 0.576531 0
M  V30 7298 H 684.924 -0.464994 2.00067 0
M  V30 7299 H 683.154 -2.97641 2.46874 0
M  V30 7300 H 684.843 -2.86718 2.87311 0
M  V30 7301 H 685.609 -1.18752 4.70237 0
M  V30 7302 H 681.488 -2.21971 4.04042 0
M  V30 7303 H 685.032 -0.386024 6.96531 0
M  V30 7304 H 680.929 -1.42356 6.29607 0
M  V30 7305 H 681.697 -0.526459 8.16805 0
M  V30 7306 N 684.36 -1.4356 -0.65026 0
M  V30 7307 C 685.293 -1.434 -1.77515 0
M  V30 7308 C 686.271 -0.295082 -1.599 0
M  V30 7309 O 687.455 -0.489128 -1.82043 0
M  V30 7310 C 684.582 -1.2484 -3.14853 0
M  V30 7311 C 683.628 -2.42046 -3.51163 0
M  V30 7312 S 684.461 -4.04595 -3.50803 0
M  V30 7313 C 685.617 -3.88424 -4.90793 0
M  V30 7314 H 685.85 -2.38586 -1.77381 0
M  V30 7315 H 683.383 -1.30627 -0.823169 0
M  V30 7316 H 685.341 -1.14819 -3.94115 0
M  V30 7317 H 684.002 -0.311977 -3.12547 0
M  V30 7318 H 683.195 -2.24873 -4.51052 0
M  V30 7319 H 682.797 -2.48708 -2.79321 0
M  V30 7320 H 685.089 -3.50932 -5.79528 0
M  V30 7321 H 686.032 -4.88076 -5.13018 0
M  V30 7322 H 686.44 -3.20829 -4.64467 0
M  V30 7323 N 685.838 0.888903 -1.30139 0
M  V30 7324 C 687.249 1.45578 -1.16893 0
M  V30 7325 C 687.6 1.94825 0.231866 0
M  V30 7326 O 686.725 1.84661 1.12824 0
M  V30 7327 C 687.32 2.646 -2.11595 0
M  V30 7328 C 685.879 3.17389 -2.02339 0
M  V30 7329 C 685.026 1.90081 -2.01902 0
M  V30 7330 H 687.977 0.69921 -1.42467 0
M  V30 7331 H 687.998 3.40687 -1.69449 0
M  V30 7332 H 687.51 2.28726 -3.13538 0
M  V30 7333 H 685.611 3.5793 -1.03523 0
M  V30 7334 H 685.724 3.80955 -2.90534 0
M  V30 7335 H 684.088 2.08246 -1.46648 0
M  V30 7336 H 684.871 1.5647 -3.05568 0
M  V30 7337 N 687.317 1.12792 1.10072 0
M  V30 7338 C 688.733 0.864745 1.34143 0
M  V30 7339 C 688.933 -0.503201 1.95116 0
M  V30 7340 O 687.989 -1.25111 2.19325 0
M  V30 7341 C 689.302 1.98413 2.25949 0
M  V30 7342 C 690.85 2.01545 2.39476 0
M  V30 7343 C 691.325 3.12727 3.34613 0
M  V30 7344 N 692.816 3.12194 3.42183 0
M  V30 7345 C 693.551 3.94862 4.15779 0
M  V30 7346 N 693.047 4.87528 4.92228 0
M  V30 7347 N 694.84 3.82985 4.11435 0
M  V30 7348 H 686.991 2.00926 0.68866 0
M  V30 7349 H 689.254 0.874564 0.365844 0
M  V30 7350 H 688.96 2.97005 1.88364 0
M  V30 7351 H 688.834 1.89254 3.26287 0
M  V30 7352 H 691.221 1.0357 2.76328 0
M  V30 7353 H 691.302 2.14777 1.3894 0
M  V30 7354 H 690.946 4.10936 2.98486 0
M  V30 7355 H 690.876 2.96732 4.35037 0
M  V30 7356 H 693.367 2.45065 2.87666 0
M  V30 7357 H 693.68 5.47109 5.45794 0
M  V30 7358 H 692.025 4.91539 4.9134 0
M  V30 7359 H 695.216 3.09923 3.50807 0
M  V30 7360 H 695.389 4.47641 4.68531 0
M  V30 7361 N 688.795 -1.27931 0.920396 0
M  V30 7362 C 689.742 -2.27085 0.412422 0
M  V30 7363 C 690.712 -1.57858 -0.516725 0
M  V30 7364 O 691.897 -1.85717 -0.437475 0
M  V30 7365 C 689.037 -3.43466 -0.335399 0
M  V30 7366 C 688.15 -4.27425 0.627017 0
M  V30 7367 C 687.285 -5.31016 -0.139916 0
M  V30 7368 C 686.324 -6.06641 0.815683 0
M  V30 7369 N 685.461 -7.02052 0.0818439 0
M  V30 7370 H 690.301 -2.69913 1.26298 0
M  V30 7371 H 687.838 -1.32732 0.634076 0
M  V30 7372 H 689.796 -4.09744 -0.785226 0
M  V30 7373 H 688.426 -3.01611 -1.15025 0
M  V30 7374 H 687.478 -3.6113 1.19537 0
M  V30 7375 H 688.79 -4.79969 1.35763 0
M  V30 7376 H 687.944 -6.03208 -0.649998 0
M  V30 7377 H 686.683 -4.79257 -0.903543 0
M  V30 7378 H 685.688 -5.33294 1.33708 0
M  V30 7379 H 686.913 -6.60489 1.57897 0
M  V30 7380 H 684.859 -6.52634 -0.663671 0
M  V30 7381 H 684.776 -7.52249 0.752163 0
M  V30 7382 H 686.044 -7.78432 -0.407825 0
M  V30 7383 N 690.273 -0.685099 -1.4193 0
M  V30 7384 C 691.236 -0.0222632 -2.29189 0
M  V30 7385 C 692.236 0.7186 -1.4385 0
M  V30 7386 O 693.426 0.555058 -1.6512 0
M  V30 7387 C 690.558 0.979013 -3.2654 0
M  V30 7388 H 691.751 -0.790424 -2.89296 0
M  V30 7389 H 689.304 -0.448012 -1.49742 0
M  V30 7390 H 690.039 1.77531 -2.71392 0
M  V30 7391 H 689.824 0.451037 -3.89497 0
M  V30 7392 H 691.314 1.44091 -3.91954 0
M  V30 7393 N 691.751 1.51645 -0.429126 0
M  V30 7394 C 692.976 2.06917 0.141399 0
M  V30 7395 C 693.401 1.29527 1.36398 0
M  V30 7396 O 692.759 0.33094 1.78254 0
M  V30 7397 C 692.807 3.57776 0.4504 0
M  V30 7398 O 691.911 3.82639 1.53821 0
M  V30 7399 H 691.252 0.663978 0.0054647 0
M  V30 7400 H 693.782 1.95355 -0.608093 0
M  V30 7401 H 693.792 4.01894 0.703249 0
M  V30 7402 H 692.467 4.13532 -0.443213 0
M  V30 7403 H 691.044 3.5039 1.27597 0
M  V30 7404 N 693.229 0.160201 1.56784 0
M  V30 7405 C 694.475 -0.48831 1.96833 0
M  V30 7406 C 694.808 -1.63641 1.04571 0
M  V30 7407 O 694.083 -1.94289 0.0906481 0
M  V30 7408 C 694.366 -0.981908 3.46454 0
M  V30 7409 C 694.219 0.165607 4.49495 0
M  V30 7410 C 695.538 -1.85931 3.98896 0
M  V30 7411 H 692.657 -0.176027 0.71567 0
M  V30 7412 H 695.299 0.244093 1.88426 0
M  V30 7413 H 693.449 -1.60602 3.5375 0
M  V30 7414 H 695.121 0.802372 4.54268 0
M  V30 7415 H 693.364 0.822789 4.25926 0
M  V30 7416 H 694.035 -0.221699 5.51555 0
M  V30 7417 H 696.511 -1.33327 3.94161 0
M  V30 7418 H 695.387 -2.17373 5.04024 0
M  V30 7419 H 695.648 -2.80106 3.42042 0
M  V30 7420 N 694.707 -1.5719 -0.113559 0
M  V30 7421 C 695.955 -1.84772 -0.818761 0
M  V30 7422 C 696.276 -0.746196 -1.80158 0
M  V30 7423 O 695.546 0.229305 -1.94553 0
M  V30 7424 H 694.126 -0.681737 -0.305359 0
M  V30 7425 H 696.788 -1.94645 -0.0995845 0
M  V30 7426 H 695.884 -2.80878 -1.36067 0
M  V30 7427 N 696.185 0.383891 -1.52853 0
M  V30 7428 C 697.41 1.154 -1.7233 0
M  V30 7429 C 697.835 1.82809 -0.44298 0
M  V30 7430 O 697.193 1.71026 0.601645 0
M  V30 7431 C 697.241 2.17386 -2.87708 0
M  V30 7432 O 696.345 3.24082 -2.55038 0
M  V30 7433 H 695.686 0.335709 -0.572883 0
M  V30 7434 H 698.216 0.44662 -1.99666 0
M  V30 7435 H 698.226 2.61296 -3.1335 0
M  V30 7436 H 696.901 1.6771 -3.80587 0
M  V30 7437 H 695.478 2.85273 -2.40153 0
M  V30 7438 N 697.663 1.43903 0.642637 0
M  V30 7439 C 698.626 1.49538 1.73698 0
M  V30 7440 C 699.626 0.378776 1.56275 0
M  V30 7441 O 700.816 0.64095 1.6198 0
M  V30 7442 C 697.948 1.35821 3.12675 0
M  V30 7443 H 699.141 2.47008 1.70079 0
M  V30 7444 H 696.694 1.30824 0.85526 0
M  V30 7445 H 697.429 0.393994 3.21898 0
M  V30 7446 H 697.214 2.16776 3.26727 0
M  V30 7447 H 698.704 1.4272 3.92455 0
M  V30 7448 N 699.141 -0.881989 1.30609 0
M  V30 7449 C 700.366 -1.67236 1.22665 0
M  V30 7450 C 700.791 -1.8696 -0.206777 0
M  V30 7451 O 700.149 -1.4027 -1.14865 0
M  V30 7452 C 700.197 -3.02446 1.96363 0
M  V30 7453 O 699.301 -3.91614 1.29276 0
M  V30 7454 H 698.642 -0.510902 0.424117 0
M  V30 7455 H 701.172 -1.10055 1.72479 0
M  V30 7456 H 701.182 -3.52468 2.055 0
M  V30 7457 H 699.857 -2.8741 3.00613 0
M  V30 7458 H 698.434 -3.50055 1.28514 0
M  V30 7459 N 700.619 -1.13374 -1.09472 0
M  V30 7460 C 701.847 -0.918351 -1.85402 0
M  V30 7461 C 702.262 0.53281 -1.81126 0
M  V30 7462 O 701.619 1.36879 -1.20708 0
M  V30 7463 C 701.67 -1.39743 -3.33398 0
M  V30 7464 O 701.391 -2.79172 -3.37631 0
M  V30 7465 C 702.892 -1.22042 -4.2617 0
M  V30 7466 H 700.112 -0.327511 -0.585643 0
M  V30 7467 H 702.656 -1.50617 -1.38328 0
M  V30 7468 H 700.811 -0.852619 -3.77901 0
M  V30 7469 H 701.225 -3.00428 -4.29934 0
M  V30 7470 H 702.699 -1.60438 -5.2817 0
M  V30 7471 H 703.176 -0.162047 -4.38901 0
M  V30 7472 H 703.782 -1.75323 -3.87482 0
M  V30 7473 N 702.098 1.27442 -0.927168 0
M  V30 7474 C 703.514 1.46754 -0.627329 0
M  V30 7475 C 703.714 1.83902 0.823549 0
M  V30 7476 O 702.77 1.95215 1.60148 0
M  V30 7477 C 704.083 2.56045 -1.57674 0
M  V30 7478 C 705.631 2.69906 -1.58491 0
M  V30 7479 C 706.106 3.82355 -2.52128 0
M  V30 7480 N 707.597 3.89728 -2.50332 0
M  V30 7481 C 708.332 4.76155 -3.19475 0
M  V30 7482 N 707.828 5.67073 -3.97995 0
M  V30 7483 N 709.621 4.6988 -3.08496 0
M  V30 7484 H 701.772 1.01613 -1.86517 0
M  V30 7485 H 704.035 0.507443 -0.800753 0
M  V30 7486 H 703.741 2.35542 -2.61176 0
M  V30 7487 H 703.615 3.53423 -1.31804 0
M  V30 7488 H 706.002 2.89792 -0.557208 0
M  V30 7489 H 706.083 1.73018 -1.8841 0
M  V30 7490 H 705.727 3.63224 -3.55008 0
M  V30 7491 H 705.657 4.7867 -2.19505 0
M  V30 7492 H 708.148 3.24717 -1.93306 0
M  V30 7493 H 708.461 6.2988 -4.4774 0
M  V30 7494 H 706.806 5.6687 -4.02098 0
M  V30 7495 H 709.997 3.97848 -2.46646 0
M  V30 7496 H 710.17 5.37017 -3.62652 0
M  V30 7497 N 703.576 0.692616 1.41565 0
M  V30 7498 C 704.526 0.00231847 2.28 0
M  V30 7499 C 705.51 -0.755793 1.42044 0
M  V30 7500 O 706.702 -0.631772 1.65341 0
M  V30 7501 C 703.831 -0.935468 3.30309 0
M  V30 7502 C 702.917 -0.173761 4.23744 0
M  V30 7503 N 703.308 0.830872 4.98929 0
M  V30 7504 C 701.606 -0.409666 4.44115 0
M  V30 7505 C 702.307 1.28656 5.67294 0
M  V30 7506 N 701.283 0.613053 5.40132 0
M  V30 7507 H 705.085 0.772635 2.83562 0
M  V30 7508 H 702.599 0.523198 1.53741 0
M  V30 7509 H 704.596 -1.44513 3.91052 0
M  V30 7510 H 703.256 -1.70542 2.76307 0
M  V30 7511 H 704.267 1.21101 5.03542 0
M  V30 7512 H 700.944 -1.15773 4.01127 0
M  V30 7513 H 702.334 2.12006 6.37576 0
M  V30 7514 N 705.054 -1.51416 0.437162 0
M  V30 7515 C 706.3 -2.02386 -0.129555 0
M  V30 7516 C 706.633 -1.32071 -1.42376 0
M  V30 7517 O 705.908 -0.43559 -1.8956 0
M  V30 7518 C 706.191 -3.5841 -0.348487 0
M  V30 7519 C 706.044 -4.39341 0.964352 0
M  V30 7520 C 707.363 -4.25654 -1.11834 0
M  V30 7521 H 704.482 -0.735587 -0.0456109 0
M  V30 7522 H 707.124 -1.81055 0.576124 0
M  V30 7523 H 705.274 -3.76716 -0.949592 0
M  V30 7524 H 706.946 -4.32685 1.59942 0
M  V30 7525 H 705.189 -4.04432 1.56898 0
M  V30 7526 H 705.86 -5.4667 0.765212 0
M  V30 7527 H 708.336 -4.11617 -0.609165 0
M  V30 7528 H 707.212 -5.34704 -1.24029 0
M  V30 7529 H 707.473 -3.86502 -2.14636 0
M  V30 7530 N 706.532 -0.168513 -1.56696 0
M  V30 7531 C 707.779 0.477158 -1.96798 0
M  V30 7532 C 708.107 1.63442 -1.05437 0
M  V30 7533 O 707.362 1.95503 -0.0878903 0
M  V30 7534 C 707.661 1.00441 -3.42996 0
M  V30 7535 C 707.327 -0.0366556 -4.50885 0
M  V30 7536 C 705.989 -0.322785 -4.80116 0
M  V30 7537 C 708.341 -0.743447 -5.1587 0
M  V30 7538 C 705.669 -1.32114 -5.71632 0
M  V30 7539 C 708.021 -1.73077 -6.08463 0
M  V30 7540 C 706.685 -2.02437 -6.36062 0
M  V30 7541 H 705.955 0.174604 -0.720135 0
M  V30 7542 H 708.602 -0.259884 -1.89728 0
M  V30 7543 H 706.907 1.81922 -3.47004 0
M  V30 7544 H 708.604 1.51294 -3.71364 0
M  V30 7545 H 705.194 0.196532 -4.28149 0
M  V30 7546 H 709.378 -0.535602 -4.93401 0
M  V30 7547 H 704.634 -1.55482 -5.913 0
M  V30 7548 H 708.808 -2.28382 -6.57886 0
M  V30 7549 H 706.435 -2.79946 -7.06777 0
M  V30 7550 N 708.01 1.57248 0.105221 0
M  V30 7551 C 709.258 1.85204 0.808951 0
M  V30 7552 C 709.579 0.75574 1.7976 0
M  V30 7553 O 708.849 -0.218984 1.94672 0
M  V30 7554 H 707.429 0.683346 0.301739 0
M  V30 7555 H 710.091 1.94695 0.0892605 0
M  V30 7556 H 709.187 2.81595 1.34575 0
M  V30 7557 N 709.488 -0.375779 1.53054 0
M  V30 7558 C 710.713 -1.14484 1.7294 0
M  V30 7559 C 711.138 -1.82572 0.452668 0
M  V30 7560 O 710.496 -1.71343 -0.592567 0
M  V30 7561 C 710.544 -2.15857 2.88857 0
M  V30 7562 O 709.648 -3.22725 2.56753 0
M  V30 7563 H 708.989 -0.332666 0.574656 0
M  V30 7564 H 711.519 -0.436025 1.999 0
M  V30 7565 H 711.529 -2.59631 3.14731 0
M  V30 7566 H 710.204 -1.65689 3.81471 0
M  V30 7567 H 708.781 -2.83996 2.41663 0
M  V30 7568 N 710.966 -1.44241 -0.634997 0
M  V30 7569 C 712.382 -1.28043 -0.952742 0
M  V30 7570 C 712.582 -0.21338 -2.00367 0
M  V30 7571 O 711.638 0.402042 -2.49279 0
M  V30 7572 C 712.951 -2.65076 -1.41968 0
M  V30 7573 C 714.499 -2.72755 -1.53537 0
M  V30 7574 C 714.974 -4.10249 -2.03616 0
M  V30 7575 N 716.465 -4.12406 -2.10892 0
M  V30 7576 C 717.2 -5.15641 -2.50803 0
M  V30 7577 N 716.696 -6.29239 -2.89879 0
M  V30 7578 N 718.489 -5.02995 -2.50903 0
M  V30 7579 H 710.64 -2.12315 0.060098 0
M  V30 7580 H 712.903 -0.947326 -0.0357325 0
M  V30 7581 H 712.609 -3.44213 -0.721804 0
M  V30 7582 H 712.483 -2.91704 -2.39141 0
M  V30 7583 H 714.87 -1.93939 -2.22422 0
M  V30 7584 H 714.951 -2.49872 -0.547496 0
M  V30 7585 H 714.595 -4.8954 -1.35327 0
M  V30 7586 H 714.525 -4.30507 -3.03268 0
M  V30 7587 H 717.016 -3.30417 -1.83393 0
M  V30 7588 H 717.329 -7.03827 -3.19135 0
M  V30 7589 H 715.674 -6.32683 -2.8764 0
M  V30 7590 H 718.865 -4.13306 -2.19763 0
M  V30 7591 H 719.038 -5.83574 -2.81683 0
M  V30 7592 N 712.444 0.87505 -1.31075 0
M  V30 7593 C 713.374 1.99775 -1.20881 0
M  V30 7594 C 714.355 1.69822 -0.0971612 0
M  V30 7595 O 715.54 1.92158 -0.280895 0
M  V30 7596 C 712.67 3.35163 -0.910118 0
M  V30 7597 C 711.624 3.79406 -1.98078 0
M  V30 7598 C 710.95 5.12197 -1.53488 0
M  V30 7599 C 712.25 3.97061 -3.39323 0
M  V30 7600 H 713.944 2.08562 -2.14808 0
M  V30 7601 H 711.49 1.00207 -1.03415 0
M  V30 7602 H 713.443 4.13237 -0.825423 0
M  V30 7603 H 712.167 3.26536 0.064822 0
M  V30 7604 H 710.826 3.03568 -2.05528 0
M  V30 7605 H 710.474 5.00007 -0.547941 0
M  V30 7606 H 710.174 5.4277 -2.2511 0
M  V30 7607 H 711.698 5.92785 -1.46417 0
M  V30 7608 H 713.112 4.65545 -3.34576 0
M  V30 7609 H 711.509 4.39025 -4.09118 0
M  V30 7610 H 712.579 3.00601 -3.80483 0
M  V30 7611 N 713.922 1.13953 1.08869 0
M  V30 7612 C 714.854 0.779906 2.15523 0
M  V30 7613 C 715.867 -0.20102 1.61554 0
M  V30 7614 O 717.056 0.0200049 1.78489 0
M  V30 7615 C 714.156 0.136226 3.38626 0
M  V30 7616 C 713.329 1.15069 4.21993 0
M  V30 7617 C 712.388 0.531645 5.23507 0
M  V30 7618 O 711.414 1.19327 5.56552 0
M  V30 7619 N 712.616 -0.693734 5.7634 0
M  V30 7620 H 715.381 1.69769 2.46979 0
M  V30 7621 H 712.942 1.03331 1.24637 0
M  V30 7622 H 714.934 -0.290295 4.03658 0
M  V30 7623 H 713.504 -0.684603 3.05011 0
M  V30 7624 H 712.724 1.75431 3.53012 0
M  V30 7625 H 714.012 1.83614 4.74514 0
M  V30 7626 H 713.41 -1.24994 5.51718 0
M  V30 7627 H 711.967 -1.06283 6.43076 0
M  V30 7628 N 715.4 -1.26948 0.933913 0
M  V30 7629 C 716.816 -1.46419 0.635103 0
M  V30 7630 C 717.016 -1.84336 -0.813785 0
M  V30 7631 O 716.072 -1.96061 -1.59111 0
M  V30 7632 C 717.385 -2.55206 1.5903 0
M  V30 7633 C 718.933 -2.69062 1.5992 0
M  V30 7634 C 719.408 -3.81013 2.54152 0
M  V30 7635 N 720.899 -3.88395 2.52395 0
M  V30 7636 C 721.634 -4.74454 3.21996 0
M  V30 7637 N 721.13 -5.64954 4.00997 0
M  V30 7638 N 722.923 -4.68237 3.10983 0
M  V30 7639 H 715.074 -1.00622 1.87053 0
M  V30 7640 H 717.337 -0.503189 0.803433 0
M  V30 7641 H 717.043 -2.34153 2.62422 0
M  V30 7642 H 716.917 -3.52719 1.33677 0
M  V30 7643 H 719.304 -2.89492 0.572569 0
M  V30 7644 H 719.385 -1.72016 1.89325 0
M  V30 7645 H 719.029 -3.61336 3.5693 0
M  V30 7646 H 718.959 -4.77499 2.22041 0
M  V30 7647 H 721.45 -3.23687 1.95025 0
M  V30 7648 H 721.763 -6.27496 4.51074 0
M  V30 7649 H 720.108 -5.6473 4.05099 0
M  V30 7650 H 723.299 -3.96535 2.48753 0
M  V30 7651 H 723.472 -5.35087 3.65494 0
M  V30 7652 N 716.879 -0.700114 -1.41195 0
M  V30 7653 C 718.128 -0.230082 -2.00383 0
M  V30 7654 C 718.441 1.17857 -1.56106 0
M  V30 7655 O 719.647 1.74631 -2.07885 0
M  V30 7656 C 718.103 -0.360447 -3.5809 0
M  V30 7657 C 717.711 -1.77475 -4.11347 0
M  V30 7658 C 719.455 0.0495799 -4.24471 0
M  V30 7659 C 717.362 -1.85653 -5.61504 0
M  V30 7660 H 716.292 -0.0822633 -0.749499 0
M  V30 7661 H 718.943 -0.868969 -1.6162 0
M  V30 7662 H 717.325 0.346768 -3.94479 0
M  V30 7663 H 718.499 -2.51109 -3.86369 0
M  V30 7664 H 716.814 -2.13486 -3.57509 0
M  V30 7665 H 719.411 0.00898219 -5.34699 0
M  V30 7666 H 719.754 1.08904 -4.01803 0
M  V30 7667 H 720.287 -0.607521 -3.93134 0
M  V30 7668 H 717.026 -2.87667 -5.89006 0
M  V30 7669 H 716.546 -1.1641 -5.88395 0
M  V30 7670 H 718.225 -1.62151 -6.26351 0
M  V30 7671 N 718.357 1.51182 -0.445186 0
M  V30 7672 C 719.304 2.27939 0.362291 0
M  V30 7673 C 720.274 1.31864 1.01 0
M  V30 7674 O 721.459 1.60776 1.02741 0
M  V30 7675 C 718.599 3.13016 1.45311 0
M  V30 7676 C 717.712 4.24093 0.822757 0
M  V30 7677 C 716.847 4.96467 1.88928 0
M  V30 7678 C 715.886 5.99454 1.23778 0
M  V30 7679 N 715.023 6.65206 2.24602 0
M  V30 7680 H 719.863 2.965 -0.29862 0
M  V30 7681 H 717.4 1.46237 -0.15911 0
M  V30 7682 H 719.358 3.60673 2.09692 0
M  V30 7683 H 717.988 2.46553 2.08354 0
M  V30 7684 H 717.04 3.80341 0.0670364 0
M  V30 7685 H 718.352 4.97853 0.307184 0
M  V30 7686 H 717.506 5.47712 2.60953 0
M  V30 7687 H 716.245 4.22355 2.4386 0
M  V30 7688 H 715.25 5.47494 0.503042 0
M  V30 7689 H 716.475 6.75527 0.695694 0
M  V30 7690 H 714.421 5.93901 2.78599 0
M  V30 7691 H 714.338 7.34756 1.77958 0
M  V30 7692 H 715.606 7.21078 2.96085 0
M  V30 7693 N 719.835 0.176821 1.56605 0
M  V30 7694 C 721.063 -0.472828 2.01425 0
M  V30 7695 C 721.478 -1.56436 1.05703 0
M  V30 7696 O 720.835 -1.82405 0.058808 0
M  V30 7697 C 720.886 -1.04607 3.46034 0
M  V30 7698 O 720.607 0.00189608 4.381 0
M  V30 7699 C 722.108 -1.7734 4.06282 0
M  V30 7700 H 719.328 -0.120503 0.660091 0
M  V30 7701 H 721.872 0.280166 2.02572 0
M  V30 7702 H 720.027 -1.74953 3.45645 0
M  V30 7703 H 720.441 -0.422118 5.22799 0
M  V30 7704 H 721.915 -2.12703 5.09374 0
M  V30 7705 H 722.392 -2.67043 3.4869 0
M  V30 7706 H 722.998 -1.11623 4.10391 0
M  V30 7707 N 721.313 -1.57302 -0.09688 0
M  V30 7708 C 722.541 -1.90202 -0.814295 0
M  V30 7709 C 722.956 -0.770344 -1.72369 0
M  V30 7710 O 722.313 0.257764 -1.8067 0
M  V30 7711 C 722.364 -3.22708 -1.62916 0
M  V30 7712 O 722.085 -4.31522 -0.756343 0
M  V30 7713 C 723.586 -3.69459 -2.44979 0
M  V30 7714 H 720.806 -0.629275 -0.232925 0
M  V30 7715 H 723.35 -2.04364 -0.0746482 0
M  V30 7716 H 721.505 -3.1015 -2.32133 0
M  V30 7717 H 721.919 -5.07604 -1.32054 0
M  V30 7718 H 723.393 -4.64875 -2.9765 0
M  V30 7719 H 723.87 -2.97211 -3.23361 0
M  V30 7720 H 724.476 -3.84879 -1.80964 0
M  V30 7721 N 722.791 0.367657 -1.53252 0
M  V30 7722 C 724.037 1.11216 -1.69584 0
M  V30 7723 C 724.37 1.89026 -0.445269 0
M  V30 7724 O 723.645 1.86342 0.557404 0
M  V30 7725 C 723.928 2.07308 -2.94441 0
M  V30 7726 C 723.781 1.3312 -4.2965 0
M  V30 7727 C 725.1 3.07459 -3.14892 0
M  V30 7728 H 722.219 0.40294 -0.617096 0
M  V30 7729 H 724.861 0.393201 -1.85887 0
M  V30 7730 H 723.011 2.68617 -2.80673 0
M  V30 7731 H 724.683 0.746111 -4.55226 0
M  V30 7732 H 722.926 0.633051 -4.29156 0
M  V30 7733 H 723.597 2.03443 -5.13142 0
M  V30 7734 H 726.073 2.56252 -3.27832 0
M  V30 7735 H 724.949 3.71919 -4.03693 0
M  V30 7736 H 725.21 3.77514 -2.30077 0
M  V30 7737 N 724.269 1.44576 0.627338 0
M  V30 7738 C 725.217 1.52039 1.76031 0
M  V30 7739 C 726.211 0.391796 1.64807 0
M  V30 7740 O 727.417 0.5669 1.7084 0
M  V30 7741 H 723.792 0.477165 0.581221 0
M  V30 7742 H 725.763 2.47387 1.6686 0
M  V30 7743 C 724.512 1.48539 3.14375 0
M  V30 7744 H 723.835 2.34699 3.23661 0
M  V30 7745 H 725.275 1.57821 3.93534 0
M  V30 7746 C 723.734 0.20672 3.36265 0
M  V30 7747 O 724.264 -0.72154 3.95167 0
M  V30 7748 N 722.47 0.108654 2.90397 0
M  V30 7749 H 722.017 0.864884 2.42647 0
M  V30 7750 H 721.975 -0.746121 3.05418 0
M  V30 7751 N 725.747 -0.868086 1.31537 0
M  V30 7752 C 726.975 -1.65402 1.24298 0
M  V30 7753 C 727.39 -1.87827 -0.191389 0
M  V30 7754 O 726.747 -1.43776 -1.12404 0
M  V30 7755 C 726.798 -3.02093 1.9855 0
M  V30 7756 O 726.519 -2.80668 3.36388 0
M  V30 7757 C 728.02 -3.96538 1.98173 0
M  V30 7758 H 725.24 -0.515598 0.429417 0
M  V30 7759 H 727.784 -1.0834 1.73444 0
M  V30 7760 H 725.939 -3.55838 1.53161 0
M  V30 7761 H 726.353 -3.67504 3.74221 0
M  V30 7762 H 727.827 -4.8976 2.54635 0
M  V30 7763 H 728.304 -4.28474 0.964697 0
M  V30 7764 H 728.91 -3.48729 2.4345 0
M  V30 7765 N 727.225 -1.14528 -1.08264 0
M  V30 7766 C 728.474 -0.908992 -1.80056 0
M  V30 7767 C 728.787 0.565859 -1.87236 0
M  V30 7768 O 729.993 0.919454 -2.55457 0
M  V30 7769 C 728.449 -1.57681 -3.23519 0
M  V30 7770 C 728.057 -3.08803 -3.24569 0
M  V30 7771 C 729.801 -1.4217 -3.99985 0
M  V30 7772 C 727.708 -3.68414 -4.62629 0
M  V30 7773 H 726.638 -0.336432 -0.674781 0
M  V30 7774 H 729.289 -1.37437 -1.21587 0
M  V30 7775 H 727.671 -1.03911 -3.82124 0
M  V30 7776 H 728.845 -3.69252 -2.75663 0
M  V30 7777 H 727.16 -3.23968 -2.61598 0
M  V30 7778 H 729.757 -1.84106 -5.02005 0
M  V30 7779 H 730.1 -0.367989 -4.1467 0
M  V30 7780 H 730.633 -1.92984 -3.47853 0
M  V30 7781 H 727.372 -4.73644 -4.53147 0
M  V30 7782 H 726.892 -3.12746 -5.11811 0
M  V30 7783 H 728.571 -3.68793 -5.31602 0
M  V30 7784 N 728.703 1.26451 -0.940633 0
M  V30 7785 C 729.951 1.93395 -0.586748 0
M  V30 7786 C 730.272 1.7417 0.876921 0
M  V30 7787 O 729.542 1.097 1.62304 0
M  V30 7788 H 728.122 0.715687 -0.214012 0
M  V30 7789 H 730.784 1.53902 -1.19584 0
M  V30 7790 H 729.88 3.01565 -0.804059 0
M  V30 7791 N 730.181 0.707592 1.40822 0
M  V30 7792 C 731.144 0.0587224 2.29125 0
M  V30 7793 C 732.144 -0.695624 1.44975 0
M  V30 7794 O 733.334 -0.528718 1.65983 0
M  V30 7795 C 730.466 -0.926939 3.28056 0
M  V30 7796 H 731.659 0.836349 2.88002 0
M  V30 7797 H 729.212 0.471778 1.4901 0
M  V30 7798 H 729.947 -1.7319 2.74182 0
M  V30 7799 H 729.732 -0.389015 3.90165 0
M  V30 7800 H 731.222 -1.37837 3.94196 0
M  V30 7801 N 731.66 -1.50943 0.453197 0
M  V30 7802 C 732.888 -2.06628 -0.106135 0
M  V30 7803 C 733.303 -1.31901 -1.35084 0
M  V30 7804 O 732.66 -0.383074 -1.78434 0
M  V30 7805 C 732.711 -3.5914 -0.412368 0
M  V30 7806 O 732.432 -4.31047 0.782948 0
M  V30 7807 C 733.933 -4.31391 -1.02064 0
M  V30 7808 H 731.153 -0.670999 -0.000885896 0
M  V30 7809 H 733.697 -1.94331 0.63684 0
M  V30 7810 H 731.852 -3.71299 -1.10526 0
M  V30 7811 H 732.266 -5.21948 0.516736 0
M  V30 7812 H 733.74 -5.39135 -1.1848 0
M  V30 7813 H 734.217 -3.90714 -2.00598 0
M  V30 7814 H 734.823 -4.23716 -0.366664 0
M  V30 7815 N 733.138 -0.185124 -1.56509 0
M  V30 7816 C 734.386 0.455357 -1.96903 0
M  V30 7817 C 734.707 1.62839 -1.07277 0
M  V30 7818 O 733.977 1.95385 -0.141966 0
M  V30 7819 H 732.557 0.171218 -0.727113 0
M  V30 7820 H 735.219 -0.26953 -1.93027 0
M  V30 7821 H 734.315 0.80616 -3.01509 0
M  V30 7822 N 734.616 1.57351 0.0885366 0
M  V30 7823 C 735.563 2.02523 1.10693 0
M  V30 7824 C 736.533 0.902736 1.39427 0
M  V30 7825 O 737.718 1.16921 1.50779 0
M  V30 7826 C 734.858 2.46013 2.42016 0
M  V30 7827 C 733.971 3.7181 2.19957 0
M  V30 7828 C 733.106 4.04152 3.44724 0
M  V30 7829 C 732.145 5.2304 3.17956 0
M  V30 7830 N 731.282 5.51102 4.35007 0
M  V30 7831 H 736.122 2.89302 0.714742 0
M  V30 7832 H 733.659 1.43084 0.341378 0
M  V30 7833 H 735.617 2.69274 3.18665 0
M  V30 7834 H 734.247 1.62235 2.79069 0
M  V30 7835 H 733.299 3.55987 1.34079 0
M  V30 7836 H 734.611 4.58604 1.96173 0
M  V30 7837 H 733.765 4.28225 4.29777 0
M  V30 7838 H 732.504 3.15893 3.71568 0
M  V30 7839 H 731.509 4.98781 2.31296 0
M  V30 7840 H 732.734 6.12902 2.92451 0
M  V30 7841 H 730.68 4.65802 4.61914 0
M  V30 7842 H 730.597 6.3228 4.14437 0
M  V30 7843 H 731.865 5.79714 5.21106 0
M  V30 7844 N 736.094 -0.359525 1.53444 0
M  V30 7845 C 737.024 -1.44662 1.8329 0
M  V30 7846 C 738.005 -1.55617 0.68683 0
M  V30 7847 O 739.19 -1.70086 0.93725 0
M  V30 7848 C 736.32 -2.81923 2.02822 0
M  V30 7849 C 735.274 -2.85787 3.18606 0
M  V30 7850 C 734.6 -4.25781 3.23442 0
M  V30 7851 C 735.9 -2.52762 4.57065 0
M  V30 7852 H 737.594 -1.19934 2.74329 0
M  V30 7853 H 735.14 -0.575517 1.31999 0
M  V30 7854 H 737.093 -3.58005 2.22285 0
M  V30 7855 H 735.817 -3.08051 1.085 0
M  V30 7856 H 734.476 -2.12157 2.98973 0
M  V30 7857 H 734.124 -4.48994 2.26745 0
M  V30 7858 H 733.824 -4.29281 4.01238 0
M  V30 7859 H 735.348 -5.03727 3.45096 0
M  V30 7860 H 736.762 -3.18557 4.76649 0
M  V30 7861 H 735.159 -2.67569 5.37147 0
M  V30 7862 H 736.229 -1.47993 4.61764 0
M  V30 7863 N 737.572 -1.44907 -0.619662 0
M  V30 7864 C 738.797 -1.52021 -1.41083 0
M  V30 7865 C 739.222 -0.14976 -1.87503 0
M  V30 7866 O 738.58 0.863303 -1.59426 0
M  V30 7867 C 738.628 -2.49911 -2.59955 0
M  V30 7868 O 737.732 -2.00857 -3.60181 0
M  V30 7869 H 737.073 -0.512912 -0.421684 0
M  V30 7870 H 739.603 -1.90149 -0.755282 0
M  V30 7871 H 739.613 -2.68323 -3.07354 0
M  V30 7872 H 738.288 -3.4945 -2.25516 0
M  V30 7873 H 736.865 -1.92265 -3.19513 0
M  V30 7874 N 739.05 0.861098 -1.31996 0
M  V30 7875 C 740.013 1.95068 -1.20338 0
M  V30 7876 C 741.013 1.60289 -0.128114 0
M  V30 7877 O 742.203 1.70048 -0.378044 0
M  V30 7878 C 739.335 3.30153 -0.849205 0
M  V30 7879 H 740.528 2.06833 -2.17164 0
M  V30 7880 H 738.081 1.05049 -1.15734 0
M  V30 7881 H 738.816 3.24087 0.117508 0
M  V30 7882 H 738.601 3.56771 -1.62655 0
M  V30 7883 H 740.091 4.10025 -0.791782 0
M  V30 7884 N 740.528 1.15101 1.07655 0
M  V30 7885 C 741.756 0.947731 1.83918 0
M  V30 7886 C 742.171 -0.503927 1.81951 0
M  V30 7887 O 741.528 -1.34941 1.2287 0
M  V30 7888 C 741.579 1.4503 3.31132 0
M  V30 7889 O 741.3 2.84508 3.33146 0
M  V30 7890 C 742.801 1.28806 4.24174 0
M  V30 7891 H 740.021 0.336786 0.580358 0
M  V30 7892 H 742.565 1.52799 1.35914 0
M  V30 7893 H 740.72 0.912632 3.76497 0
M  V30 7894 H 741.134 3.0723 4.251 0
M  V30 7895 H 742.608 1.6882 5.25551 0
M  V30 7896 H 743.085 0.231851 4.38588 0
M  V30 7897 H 743.691 1.81465 3.84643 0
M  V30 7898 N 742.006 -1.2595 0.947325 0
M  V30 7899 C 743.417 -1.75389 0.639963 0
M  V30 7900 C 743.768 -1.77081 -0.844788 0
M  V30 7901 O 742.893 -1.3869 -1.66114 0
M  V30 7902 C 743.488 -3.18506 1.15496 0
M  V30 7903 C 742.047 -3.65534 0.897894 0
M  V30 7904 C 741.194 -2.44818 1.30228 0
M  V30 7905 H 744.145 -1.1194 1.12495 0
M  V30 7906 H 744.166 -3.77045 0.511627 0
M  V30 7907 H 743.678 -3.17243 2.23559 0
M  V30 7908 H 741.779 -3.72221 -0.168096 0
M  V30 7909 H 741.892 -4.54039 1.52922 0
M  V30 7910 H 740.256 -2.44291 0.720678 0
M  V30 7911 H 741.039 -2.46251 2.39198 0
M  V30 7912 N 743.484 -0.715051 -1.40445 0
M  V30 7913 C 744.895 -0.326763 -1.83818 0
M  V30 7914 C 745.246 1.13851 -1.59789 0
M  V30 7915 O 744.371 1.87611 -1.07848 0
M  V30 7916 C 744.966 -0.586297 -3.33688 0
M  V30 7917 C 743.525 -0.251724 -3.75557 0
M  V30 7918 C 742.672 -0.858928 -2.63662 0
M  V30 7919 H 745.623 -0.914241 -1.2972 0
M  V30 7920 H 745.644 0.148636 -3.8021 0
M  V30 7921 H 745.156 -1.65281 -3.51146 0
M  V30 7922 H 743.257 0.809754 -3.63695 0
M  V30 7923 H 743.37 -0.720348 -4.73654 0
M  V30 7924 H 741.734 -0.287013 -2.53078 0
M  V30 7925 H 742.517 -1.9297 -2.83932 0
M  V30 7926 N 744.962 1.50701 -0.461195 0
M  V30 7927 C 746.373 1.867 -0.00370227 0
M  V30 7928 C 746.724 1.37673 1.39787 0
M  V30 7929 O 745.849 0.737515 2.03445 0
M  V30 7930 C 746.444 3.388 5.75786e-05 0
M  V30 7931 C 745.003 3.74247 0.402044 0
M  V30 7932 C 744.15 2.74549 -0.389652 0
M  V30 7933 H 747.101 1.43585 -0.675942 0
M  V30 7934 H 747.122 3.719 0.804414 0
M  V30 7935 H 746.634 3.74452 -1.02015 0
M  V30 7936 H 744.735 3.44192 1.42697 0
M  V30 7937 H 744.848 4.78973 0.110265 0
M  V30 7938 H 743.212 2.54226 0.155314 0
M  V30 7939 H 743.995 3.13044 -1.40919 0
M  V30 7940 N 746.441 0.193421 1.56409 0
M  V30 7941 C 747.666 -0.454552 2.02358 0
M  V30 7942 C 748.091 -1.54516 1.07268 0
M  V30 7943 O 747.449 -1.81214 0.0558962 0
M  V30 7944 C 747.497 -0.989469 3.46759 0
M  V30 7945 O 746.601 -2.10244 3.54783 0
M  V30 7946 H 745.942 -0.106417 0.655417 0
M  V30 7947 H 748.472 0.303807 2.02332 0
M  V30 7948 H 748.482 -1.30649 3.86516 0
M  V30 7949 H 747.157 -0.191083 4.15461 0
M  V30 7950 H 745.734 -1.79419 3.26899 0
M  V30 7951 N 747.919 -1.57396 -0.0801906 0
M  V30 7952 C 748.882 -2.02133 -1.0805 0
M  V30 7953 C 749.882 -0.91707 -1.32085 0
M  V30 7954 O 751.072 -1.18217 -1.27947 0
M  V30 7955 C 748.204 -2.39479 -2.42616 0
M  V30 7956 H 749.397 -2.91733 -0.6951 0
M  V30 7957 H 746.95 -1.52869 -0.325677 0
M  V30 7958 H 747.685 -1.52879 -2.86004 0
M  V30 7959 H 747.47 -3.20052 -2.26515 0
M  V30 7960 H 748.96 -2.74697 -3.14534 0
M  V30 7961 N 749.397 0.351382 -1.53633 0
M  V30 7962 C 750.808 0.927429 -1.62036 0
M  V30 7963 C 751.159 1.89809 -0.496706 0
M  V30 7964 O 750.284 2.1313 0.374749 0
M  V30 7965 C 750.879 1.68886 -2.93706 0
M  V30 7966 C 749.438 2.21404 -3.04397 0
M  V30 7967 C 748.585 1.03075 -2.57431 0
M  V30 7968 H 751.536 0.129748 -1.58169 0
M  V30 7969 H 751.557 2.55116 -2.82305 0
M  V30 7970 H 751.069 0.982149 -3.75467 0
M  V30 7971 H 749.17 2.95274 -2.27253 0
M  V30 7972 H 749.283 2.48312 -4.09729 0
M  V30 7973 H 747.647 1.40188 -2.12649 0
M  V30 7974 H 748.43 0.338793 -3.41624 0
M  V30 7975 N 750.875 1.45233 0.611969 0
M  V30 7976 C 752.286 1.4354 1.19387 0
M  V30 7977 C 752.637 0.160713 1.95541 0
M  V30 7978 O 751.762 -0.737954 2.03429 0
M  V30 7979 C 752.357 2.60045 2.17169 0
M  V30 7980 C 750.916 2.61486 2.70744 0
M  V30 7981 C 750.063 2.35708 1.46072 0
M  V30 7982 H 753.014 1.53536 0.401529 0
M  V30 7983 H 753.035 2.33893 3.00124 0
M  V30 7984 H 752.547 3.52803 1.61714 0
M  V30 7985 H 750.648 1.72721 3.30149 0
M  V30 7986 H 750.761 3.60572 3.15476 0
M  V30 7987 H 749.125 1.85178 1.74875 0
M  V30 7988 H 749.908 3.30606 0.924922 0
M  V30 7989 N 752.353 -0.854086 1.3245 0
M  V30 7990 C 753.764 -1.42427 1.20712 0
M  V30 7991 C 754.115 -1.95371 -0.18013 0
M  V30 7992 O 753.24 -1.87587 -1.07889 0
M  V30 7993 C 753.835 -2.58897 2.18536 0
M  V30 7994 C 752.394 -3.11913 2.10683 0
M  V30 7995 C 751.541 -1.84661 2.06871 0
M  V30 7996 H 754.492 -0.661192 1.4427 0
M  V30 7997 H 754.513 -3.36074 1.78422 0
M  V30 7998 H 754.025 -2.20333 3.19492 0
M  V30 7999 H 752.126 -3.55059 1.12977 0
M  V30 8000 H 752.239 -3.73119 3.00532 0
M  V30 8001 H 750.603 -2.04285 1.52118 0
M  V30 8002 H 751.386 -1.48314 3.09609 0
M  V30 8003 N 753.831 -1.1567 -1.07043 0
M  V30 8004 C 755.056 -0.957946 -1.83952 0
M  V30 8005 C 755.481 0.488807 -1.81638 0
M  V30 8006 O 754.839 1.34869 -1.21162 0
M  V30 8007 C 754.887 -1.48064 -3.288 0
M  V30 8008 O 753.991 -0.681921 -4.06723 0
M  V30 8009 H 753.332 -0.341453 -0.569479 0
M  V30 8010 H 755.862 -1.53728 -1.35015 0
M  V30 8011 H 755.872 -1.49484 -3.7963 0
M  V30 8012 H 754.547 -2.53388 -3.29799 0
M  V30 8013 H 753.124 -0.737612 -3.65532 0
M  V30 8014 N 755.309 1.25446 -0.953992 0
M  V30 8015 C 756.557 1.92762 -0.607227 0
M  V30 8016 C 756.878 1.7509 0.858399 0
M  V30 8017 O 756.148 1.11416 1.61132 0
M  V30 8018 H 754.728 0.713377 -0.221591 0
M  V30 8019 H 757.39 1.52625 -1.21209 0
M  V30 8020 H 756.486 3.00695 -0.835998 0
M  V30 8021 N 756.787 0.722489 1.40064 0
M  V30 8022 C 758.012 0.273446 2.05589 0
M  V30 8023 C 758.437 -1.07875 1.54093 0
M  V30 8024 O 757.795 -1.68095 0.679252 0
M  V30 8025 C 757.843 0.271023 3.5958 0
M  V30 8026 O 756.947 -0.745499 4.05606 0
M  V30 8027 H 756.288 0.126856 0.65177 0
M  V30 8028 H 758.818 0.984906 1.79334 0
M  V30 8029 H 758.828 0.111084 4.07849 0
M  V30 8030 H 757.503 1.25776 3.96425 0
M  V30 8031 H 756.08 -0.552719 3.68781 0
M  V30 8032 N 758.265 -1.50454 0.469181 0
M  V30 8033 C 759.513 -2.01916 -0.0862982 0
M  V30 8034 C 759.834 -1.35337 -1.40388 0
M  V30 8035 O 759.104 -0.498096 -1.89462 0
M  V30 8036 H 757.684 -0.746185 -0.0348825 0
M  V30 8037 H 760.346 -1.84804 0.619167 0
M  V30 8038 H 759.442 -3.11182 -0.239189 0
M  V30 8039 N 759.743 -0.201713 -1.56304 0
M  V30 8040 C 760.971 0.440723 -2.02152 0
M  V30 8041 C 761.386 1.54735 -1.08179 0
M  V30 8042 O 760.743 1.82289 -0.0878196 0
M  V30 8043 C 760.794 0.990884 -3.47655 0
M  V30 8044 O 760.515 -0.0715937 -4.38041 0
M  V30 8045 C 762.016 1.70854 -4.09052 0
M  V30 8046 H 759.236 0.109987 -0.661924 0
M  V30 8047 H 761.78 -0.312358 -2.021 0
M  V30 8048 H 759.935 1.69432 -3.48384 0
M  V30 8049 H 760.349 0.338892 -5.23404 0
M  V30 8050 H 761.823 2.04572 -5.12693 0
M  V30 8051 H 762.3 2.61462 -3.52894 0
M  V30 8052 H 762.906 1.0508 -4.12114 0
M  V30 8053 N 761.222 1.57436 0.0718424 0
M  V30 8054 C 762.447 1.91858 0.787745 0
M  V30 8055 C 762.872 0.798119 1.70328 0
M  V30 8056 O 762.23 -0.24905 1.79581 0
M  V30 8057 C 762.278 3.25232 1.55744 0
M  V30 8058 O 761.382 3.14462 2.6681 0
M  V30 8059 H 760.723 0.628258 0.214914 0
M  V30 8060 H 763.253 2.04561 0.0401012 0
M  V30 8061 H 763.263 3.59105 1.9367 0
M  V30 8062 H 761.938 4.0636 0.885691 0
M  V30 8063 H 760.515 2.92148 2.31741 0
M  V30 8064 N 762.7 -0.34323 1.53817 0
M  V30 8065 C 763.647 -1.42153 1.81827 0
M  V30 8066 C 764.617 -1.52251 0.663996 0
M  V30 8067 O 765.802 -1.67784 0.908461 0
M  V30 8068 C 762.942 -2.78799 2.03384 0
M  V30 8069 C 762.055 -2.7749 3.31094 0
M  V30 8070 C 761.19 -4.05856 3.42717 0
M  V30 8071 C 760.229 -3.98776 4.64375 0
M  V30 8072 N 759.366 -5.18833 4.73029 0
M  V30 8073 H 764.206 -1.17567 2.73829 0
M  V30 8074 H 761.743 -0.569506 1.35628 0
M  V30 8075 H 763.701 -3.58211 2.13872 0
M  V30 8076 H 762.331 -3.01736 1.14696 0
M  V30 8077 H 761.383 -1.90182 3.29446 0
M  V30 8078 H 762.695 -2.68137 4.206 0
M  V30 8079 H 761.849 -4.93691 3.52638 0
M  V30 8080 H 760.588 -4.1799 2.51267 0
M  V30 8081 H 759.593 -3.09325 4.5453 0
M  V30 8082 H 760.818 -3.88224 5.57189 0
M  V30 8083 H 758.764 -5.31511 3.84489 0
M  V30 8084 H 758.681 -5.11737 5.56472 0
M  V30 8085 H 759.949 -6.08439 4.87261 0
M  V30 8086 N 764.178 -1.45556 -0.604258 0
M  V30 8087 C 765.427 -1.49019 -1.35928 0
M  V30 8088 C 765.74 -0.137409 -1.95117 0
M  V30 8089 O 766.946 -0.0497032 -2.71455 0
M  V30 8090 C 765.402 -2.62477 -2.46239 0
M  V30 8091 C 765.01 -4.04082 -1.93447 0
M  V30 8092 C 766.754 -2.7519 -3.23219 0
M  V30 8093 C 764.661 -5.08917 -3.0126 0
M  V30 8094 H 763.591 -0.554518 -0.510907 0
M  V30 8095 H 766.242 -1.71705 -0.647262 0
M  V30 8096 H 764.624 -2.3308 -3.2014 0
M  V30 8097 H 765.798 -4.43173 -1.26232 0
M  V30 8098 H 764.113 -3.95849 -1.29201 0
M  V30 8099 H 766.71 -3.50683 -4.0364 0
M  V30 8100 H 767.053 -1.81941 -3.74437 0
M  V30 8101 H 767.586 -3.04129 -2.56418 0
M  V30 8102 H 764.325 -6.03886 -2.54955 0
M  V30 8103 H 763.845 -4.74393 -3.67031 0
M  V30 8104 H 765.524 -5.33814 -3.65584 0
M  V30 8105 N 765.656 0.84705 -1.32902 0
M  V30 8106 C 766.933 1.58583 -1.14503 0
M  V30 8107 C 767.313 2.09075 0.291724 0
M  V30 8108 O 766.661 1.88636 1.28952 0
M  V30 8109 C 766.871 2.72605 -2.17916 0
M  V30 8110 C 768.219 3.41993 -2.51646 0
M  V30 8111 O 769.243 2.82838 -2.1652 0
M  V30 8112 O 768.102 4.48761 -3.1189 0
M  V30 8113 H 765.196 0.698756 -0.442345 0
M  V30 8114 H 767.742 0.890516 -1.44457 0
M  V30 8115 H 766.514 2.32876 -3.14459 0
M  V30 8116 H 766.137 3.49807 -1.89 0
M  V30 8117 N 767.134 1.16236 1.06428 0
M  V30 8118 C 768.081 0.86769 2.13869 0
M  V30 8119 C 769.051 -0.183298 1.65086 0
M  V30 8120 O 770.236 -0.0488002 1.90738 0
M  V30 8121 C 767.376 0.373427 3.43074 0
M  V30 8122 C 766.489 1.48708 4.05598 0
M  V30 8123 C 765.624 0.947977 5.22673 0
M  V30 8124 C 764.663 2.03793 5.77178 0
M  V30 8125 N 763.8 1.51451 6.85571 0
M  V30 8126 H 768.64 1.78781 2.38414 0
M  V30 8127 H 766.177 0.891892 1.16977 0
M  V30 8128 H 768.135 0.0685035 4.17144 0
M  V30 8129 H 766.765 -0.509752 3.1875 0
M  V30 8130 H 765.817 1.908 3.29089 0
M  V30 8131 H 767.129 2.30964 4.42105 0
M  V30 8132 H 766.283 0.596154 6.03764 0
M  V30 8133 H 765.022 0.0947081 4.87608 0
M  V30 8134 H 764.027 2.39847 4.94726 0
M  V30 8135 H 765.252 2.89514 6.14295 0
M  V30 8136 H 763.198 0.683755 6.52427 0
M  V30 8137 H 763.115 2.27325 7.21013 0
M  V30 8138 H 764.383 1.19123 7.70344 0
M  V30 8139 N 768.612 -1.24939 0.960631 0
M  V30 8140 C 769.842 -1.96595 0.635123 0
M  V30 8141 C 770.25 -1.71538 -0.798206 0
M  V30 8142 O 769.593 -0.991727 -1.5463 0
M  V30 8143 C 769.655 -3.49994 0.821248 0
M  V30 8144 C 769.319 -3.98738 2.23287 0
M  V30 8145 C 770.316 -4.08965 3.21004 0
M  V30 8146 C 768.001 -4.32247 2.55867 0
M  V30 8147 C 769.995 -4.52025 4.49391 0
M  V30 8148 C 767.682 -4.74991 3.84482 0
M  V30 8149 C 768.68 -4.84844 4.81056 0
M  V30 8150 O 768.368 -5.26638 6.07378 0
M  V30 8151 H 768.1 -0.633265 0.23654 0
M  V30 8152 H 770.654 -1.5991 1.28911 0
M  V30 8153 H 768.884 -3.86543 0.110105 0
M  V30 8154 H 770.573 -4.02859 0.495892 0
M  V30 8155 H 771.339 -3.83302 2.97161 0
M  V30 8156 H 767.218 -4.23801 1.81421 0
M  V30 8157 H 770.762 -4.5963 5.24773 0
M  V30 8158 H 766.659 -5.00101 4.08129 0
M  V30 8159 H 767.427 -5.44807 6.10842 0
M  V30 8160 N 770.09 -0.729906 -1.39679 0
M  V30 8161 C 771.053 -0.0951668 -2.29002 0
M  V30 8162 C 772.053 0.672471 -1.46063 0
M  V30 8163 O 773.243 0.502245 -1.66803 0
M  V30 8164 C 770.375 0.874631 -3.29489 0
M  V30 8165 H 771.568 -0.882062 -2.86635 0
M  V30 8166 H 769.121 -0.495424 -1.4824 0
M  V30 8167 H 769.856 1.68807 -2.76902 0
M  V30 8168 H 769.641 0.326893 -3.90735 0
M  V30 8169 H 771.131 1.31548 -3.96339 0
M  V30 8170 N 771.568 1.50203 -0.477153 0
M  V30 8171 C 772.984 1.59056 -0.131663 0
M  V30 8172 C 773.184 1.48473 1.36227 0
M  V30 8173 O 772.24 1.34635 2.13611 0
M  V30 8174 C 773.553 2.92741 -0.687254 0
M  V30 8175 C 775.101 3.0615 -0.651223 0
M  V30 8176 C 775.576 4.42419 -1.18446 0
M  V30 8177 N 777.067 4.48847 -1.14413 0
M  V30 8178 C 777.802 5.52689 -1.52717 0
M  V30 8179 N 777.298 6.63754 -1.98499 0
M  V30 8180 N 779.091 5.43267 -1.44282 0
M  V30 8181 H 771.242 1.55325 -1.44872 0
M  V30 8182 H 773.505 0.734395 -0.599473 0
M  V30 8183 H 773.211 3.0598 -1.73405 0
M  V30 8184 H 773.085 3.76961 -0.134215 0
M  V30 8185 H 775.472 2.92556 0.386677 0
M  V30 8186 H 775.553 2.23673 -1.24114 0
M  V30 8187 H 775.197 4.56763 -2.22103 0
M  V30 8188 H 775.127 5.23498 -0.570709 0
M  V30 8189 H 777.618 3.69152 -0.808416 0
M  V30 8190 H 777.931 7.39059 -2.25859 0
M  V30 8191 H 776.276 6.64858 -2.02456 0
M  V30 8192 H 779.467 4.55387 -1.08352 0
M  V30 8193 H 779.64 6.24074 -1.74459 0
M  V30 8194 N 773.046 0.209999 1.56195 0
M  V30 8195 C 774.295 -0.425106 1.97169 0
M  V30 8196 C 774.608 -1.61718 1.10031 0
M  V30 8197 O 775.814 -2.32105 1.40853 0
M  V30 8198 C 774.27 -0.80771 3.50719 0
M  V30 8199 C 773.878 0.360902 4.46544 0
M  V30 8200 C 775.622 -1.40906 4.00432 0
M  V30 8201 C 773.529 -0.0434919 5.91384 0
M  V30 8202 H 772.459 -0.162598 0.736259 0
M  V30 8203 H 775.11 0.304382 1.80958 0
M  V30 8204 H 773.492 -1.59429 3.62489 0
M  V30 8205 H 774.666 1.13846 4.46515 0
M  V30 8206 H 772.981 0.874729 4.07109 0
M  V30 8207 H 775.578 -1.72433 5.06133 0
M  V30 8208 H 775.921 -2.32081 3.45607 0
M  V30 8209 H 776.454 -0.686154 3.91838 0
M  V30 8210 H 773.193 0.834448 6.50167 0
M  V30 8211 H 772.713 -0.785598 5.94633 0
M  V30 8212 H 774.392 -0.474176 6.4526 0
M  V30 8213 N 774.524 -1.57472 -0.0634922 0
M  V30 8214 C 775.454 -2.07297 -1.07473 0
M  V30 8215 C 776.435 -0.968162 -1.39859 0
M  V30 8216 O 777.62 -1.24139 -1.49343 0
M  V30 8217 C 774.75 -2.52381 -2.38581 0
M  V30 8218 C 773.704 -3.66813 -2.20526 0
M  V30 8219 C 773.03 -3.97982 -3.57092 0
M  V30 8220 C 774.33 -4.96553 -1.61965 0
M  V30 8221 H 776.024 -2.92033 -0.660092 0
M  V30 8222 H 773.57 -1.40488 -0.316074 0
M  V30 8223 H 775.523 -2.85852 -3.09624 0
M  V30 8224 H 774.247 -1.64684 -2.8204 0
M  V30 8225 H 772.906 -3.33639 -1.51924 0
M  V30 8226 H 772.554 -3.07403 -3.98136 0
M  V30 8227 H 772.254 -4.7504 -3.45848 0
M  V30 8228 H 773.778 -4.33956 -4.29552 0
M  V30 8229 H 775.192 -5.28201 -2.22883 0
M  V30 8230 H 773.589 -5.7799 -1.61394 0
M  V30 8231 H 774.659 -4.81396 -0.581918 0
M  V30 8232 N 776.003 0.335068 -1.53997 0
M  V30 8233 C 777.25 1.07435 -1.71651 0
M  V30 8234 C 777.578 1.88378 -0.48413 0
M  V30 8235 O 776.833 1.8827 0.534139 0
M  V30 8236 C 777.132 2.0364 -2.9371 0
M  V30 8237 C 776.798 1.38942 -4.28959 0
M  V30 8238 C 775.46 1.21027 -4.65732 0
M  V30 8239 C 777.812 0.924083 -5.12943 0
M  V30 8240 C 775.14 0.552097 -5.84097 0
M  V30 8241 C 777.492 0.27978 -6.31981 0
M  V30 8242 C 776.156 0.0883843 -6.67441 0
M  V30 8243 H 775.426 0.393133 -0.628114 0
M  V30 8244 H 778.073 0.352712 -1.88224 0
M  V30 8245 H 776.378 2.82215 -2.71775 0
M  V30 8246 H 778.075 2.6085 -3.04562 0
M  V30 8247 H 774.665 1.53885 -4.00022 0
M  V30 8248 H 778.849 1.05032 -4.85059 0
M  V30 8249 H 774.105 0.392502 -6.10139 0
M  V30 8250 H 778.279 -0.0888479 -6.96343 0
M  V30 8251 H 775.906 -0.423657 -7.59019 0
M  V30 8252 N 777.481 1.45874 0.596531 0
M  V30 8253 C 778.892 1.44798 1.17857 0
M  V30 8254 C 779.243 0.181443 1.95359 0
M  V30 8255 O 778.368 -0.716336 2.042 0
M  V30 8256 C 778.963 2.62333 2.14398 0
M  V30 8257 C 777.522 2.64342 2.67955 0
M  V30 8258 C 776.669 2.37244 1.43564 0
M  V30 8259 H 779.62 1.53954 0.385222 0
M  V30 8260 H 779.641 2.37063 2.97626 0
M  V30 8261 H 779.153 3.54499 1.57963 0
M  V30 8262 H 777.254 1.76213 3.28298 0
M  V30 8263 H 777.367 3.63897 3.11634 0
M  V30 8264 H 775.731 1.87022 1.72901 0
M  V30 8265 H 776.514 3.31568 0.889805 0
M  V30 8266 N 778.959 -0.83999 1.33349 0
M  V30 8267 C 780.205 -1.59753 1.24927 0
M  V30 8268 C 780.538 -1.93318 -0.184855 0
M  V30 8269 O 779.813 -1.586 -1.12589 0
M  V30 8270 C 780.096 -2.90829 2.12345 0
M  V30 8271 C 779.949 -2.63953 3.6421 0
M  V30 8272 C 781.268 -3.92246 1.99577 0
M  V30 8273 H 778.387 -0.579654 0.45516 0
M  V30 8274 H 781.029 -0.968909 1.63439 0
M  V30 8275 H 779.179 -3.44478 1.79631 0
M  V30 8276 H 780.851 -2.16745 4.07209 0
M  V30 8277 H 779.094 -1.97671 3.86146 0
M  V30 8278 H 779.765 -3.57348 4.20721 0
M  V30 8279 H 782.241 -3.479 2.28265 0
M  V30 8280 H 781.117 -4.81793 2.62996 0
M  V30 8281 H 781.378 -4.3138 0.967673 0
M  V30 8282 N 780.437 -1.16799 -1.0581 0
M  V30 8283 C 781.665 -0.97687 -1.82387 0
M  V30 8284 C 782.08 0.474917 -1.82729 0
M  V30 8285 O 781.437 1.3297 -1.25001 0
M  V30 8286 C 781.488 -1.50279 -3.28783 0
M  V30 8287 O 781.209 -2.89772 -3.28578 0
M  V30 8288 C 782.71 -1.35538 -4.22071 0
M  V30 8289 H 779.93 -0.345977 -0.574927 0
M  V30 8290 H 782.474 -1.54942 -1.33466 0
M  V30 8291 H 780.629 -0.972414 -3.74997 0
M  V30 8292 H 781.043 -3.13954 -4.20159 0
M  V30 8293 H 782.517 -1.7716 -5.22799 0
M  V30 8294 H 782.994 -0.301598 -4.38163 0
M  V30 8295 H 783.6 -1.87562 -3.81708 0
M  V30 8296 N 781.915 1.24427 -0.967243 0
M  V30 8297 C 783.162 1.92487 -0.62888 0
M  V30 8298 C 783.49 1.75623 0.835871 0
M  V30 8299 O 782.745 1.1027 1.61675 0
M  V30 8300 C 783.044 3.44568 -0.949096 0
M  V30 8301 C 782.71 3.816 -2.40192 0
M  V30 8302 C 781.372 3.9142 -2.799 0
M  V30 8303 C 783.724 3.99715 -3.34481 0
M  V30 8304 C 781.052 4.16771 -4.12939 0
M  V30 8305 C 783.404 4.26562 -4.67148 0
M  V30 8306 C 782.068 4.34601 -5.06634 0
M  V30 8307 H 781.338 0.704361 -0.230124 0
M  V30 8308 H 783.985 1.4772 -1.21864 0
M  V30 8309 H 782.29 3.90819 -0.277085 0
M  V30 8310 H 783.987 3.95436 -0.665692 0
M  V30 8311 H 780.577 3.74522 -2.08402 0
M  V30 8312 H 784.761 3.91531 -3.04987 0
M  V30 8313 H 780.017 4.21214 -4.43158 0
M  V30 8314 H 784.191 4.39523 -5.40178 0
M  V30 8315 H 781.818 4.53998 -6.09746 0
M  V30 8316 N 783.393 0.737304 1.3929 0
M  V30 8317 C 784.641 0.285691 2.00071 0
M  V30 8318 C 784.962 -1.13169 1.58801 0
M  V30 8319 O 784.232 -1.77104 0.837308 0
M  V30 8320 H 782.812 0.102638 0.739915 0
M  V30 8321 H 785.474 0.947775 1.70303 0
M  V30 8322 H 784.57 0.335906 3.10287 0
M  V30 8323 N 784.871 -1.49948 0.485112 0
M  V30 8324 C 785.834 -2.27351 -0.290546 0
M  V30 8325 C 786.834 -1.32704 -0.908087 0
M  V30 8326 O 788.024 -1.56007 -0.775085 0
M  V30 8327 C 785.156 -3.10135 -1.41524 0
M  V30 8328 H 786.349 -2.97374 0.388454 0
M  V30 8329 H 783.902 -1.54453 0.239586 0
M  V30 8330 H 784.637 -2.44641 -2.12888 0
M  V30 8331 H 784.422 -3.79705 -0.978074 0
M  V30 8332 H 785.912 -3.68638 -1.96204 0
M  V30 8333 N 786.349 -0.21828 -1.56081 0
M  V30 8334 C 787.596 0.414307 -1.98216 0
M  V30 8335 C 787.924 1.60005 -1.10584 0
M  V30 8336 O 787.179 1.95124 -0.150043 0
M  V30 8337 C 787.478 0.894782 -3.46018 0
M  V30 8338 C 787.144 -0.180083 -4.5054 0
M  V30 8339 C 785.806 -0.475367 -4.78846 0
M  V30 8340 C 788.158 -0.907191 -5.13244 0
M  V30 8341 C 785.486 -1.50233 -5.67139 0
M  V30 8342 C 787.838 -1.92347 -6.02649 0
M  V30 8343 C 786.502 -2.22571 -6.293 0
M  V30 8344 H 785.772 0.151606 -0.725325 0
M  V30 8345 H 788.419 -0.320113 -1.88806 0
M  V30 8346 H 786.724 1.7079 -3.52616 0
M  V30 8347 H 788.421 1.39403 -3.75989 0
M  V30 8348 H 785.011 0.06022 -4.28558 0
M  V30 8349 H 789.195 -0.692303 -4.91448 0
M  V30 8350 H 784.451 -1.74215 -5.86054 0
M  V30 8351 H 788.625 -2.49197 -6.50288 0
M  V30 8352 H 786.252 -3.0229 -6.97513 0
M  V30 8353 N 787.827 1.57504 0.0551401 0
M  V30 8354 C 788.775 2.05884 1.08233 0
M  V30 8355 C 789.769 0.967383 1.39061 0
M  V30 8356 O 790.975 1.15242 1.38273 0
M  V30 8357 H 787.35 0.656673 0.366449 0
M  V30 8358 H 789.321 2.91273 0.648269 0
M  V30 8359 C 788.07 2.53221 2.38273 0
M  V30 8360 H 787.393 3.36809 2.15406 0
M  V30 8361 H 788.833 2.9081 3.08554 0
M  V30 8362 C 787.292 1.42218 3.05411 0
M  V30 8363 O 787.822 0.773638 3.9418 0
M  V30 8364 N 786.028 1.16316 2.66306 0
M  V30 8365 H 785.575 1.69237 1.94207 0
M  V30 8366 H 785.533 0.422534 3.11548 0
M  V30 8367 N 789.305 -0.326896 1.54172 0
M  V30 8368 C 790.238 -1.42591 1.78166 0
M  V30 8369 C 791.216 -1.49837 0.631484 0
M  V30 8370 O 792.4 -1.67298 0.868544 0
M  V30 8371 C 789.527 -2.8071 1.89524 0
M  V30 8372 C 788.573 -2.91012 3.11792 0
M  V30 8373 S 789.406 -2.55763 4.70474 0
M  V30 8374 C 790.562 -3.9596 4.84733 0
M  V30 8375 H 790.795 -1.22024 2.71104 0
M  V30 8376 H 788.328 -0.523539 1.45253 0
M  V30 8377 H 790.286 -3.60276 1.96753 0
M  V30 8378 H 788.947 -2.98562 0.975696 0
M  V30 8379 H 788.14 -3.92258 3.16464 0
M  V30 8380 H 787.742 -2.19414 3.02876 0
M  V30 8381 H 790.034 -4.90676 4.67166 0
M  V30 8382 H 790.977 -3.96273 5.86833 0
M  V30 8383 H 791.385 -3.8476 4.13062 0
M  V30 8384 N 790.784 -1.46188 -0.588786 0
M  V30 8385 C 792.03 -1.51407 -1.34921 0
M  V30 8386 C 792.363 -0.162771 -1.93517 0
M  V30 8387 O 791.638 0.825082 -1.76132 0
M  V30 8388 C 791.921 -2.60795 -2.48311 0
M  V30 8389 C 791.774 -4.05435 -1.94789 0
M  V30 8390 C 793.093 -2.66313 -3.50379 0
M  V30 8391 H 790.212 -0.551213 -0.489217 0
M  V30 8392 H 792.854 -1.78095 -0.661993 0
M  V30 8393 H 791.004 -2.3817 -3.06932 0
M  V30 8394 H 792.676 -4.39328 -1.40672 0
M  V30 8395 H 790.919 -4.15202 -1.25659 0
M  V30 8396 H 791.59 -4.77691 -2.76613 0
M  V30 8397 H 794.066 -2.86634 -3.01629 0
M  V30 8398 H 792.942 -3.44681 -4.27184 0
M  V30 8399 H 793.203 -1.72127 -4.07216 0
M  V30 8400 N 792.262 0.832906 -1.33792 0
M  V30 8401 C 793.492 1.61813 -1.28453 0
M  V30 8402 C 793.9 1.88639 0.145595 0
M  V30 8403 O 793.243 1.47122 1.10004 0
M  V30 8404 C 793.305 2.98929 -1.99704 0
M  V30 8405 C 792.969 2.95045 -3.48995 0
M  V30 8406 C 793.966 2.70337 -4.44088 0
M  V30 8407 C 791.651 3.14993 -3.91261 0
M  V30 8408 C 793.645 2.65612 -5.79421 0
M  V30 8409 C 791.332 3.09893 -5.26697 0
M  V30 8410 C 792.33 2.85235 -6.20588 0
M  V30 8411 O 792.018 2.8005 -7.53543 0
M  V30 8412 H 791.75 0.510013 -0.443693 0
M  V30 8413 H 794.304 1.04514 -1.76822 0
M  V30 8414 H 792.534 3.58106 -1.45935 0
M  V30 8415 H 794.223 3.59849 -1.87786 0
M  V30 8416 H 794.989 2.54671 -4.12756 0
M  V30 8417 H 790.868 3.33204 -3.18584 0
M  V30 8418 H 794.412 2.46285 -6.52679 0
M  V30 8419 H 790.309 3.2511 -5.5765 0
M  V30 8420 H 791.077 2.95849 -7.63162 0
M  V30 8421 N 793.74 1.17359 1.05189 0
M  V30 8422 C 794.986 0.973414 1.78595 0
M  V30 8423 C 795.341 -0.492713 1.85984 0
M  V30 8424 O 794.634 -1.361 1.3486 0
M  V30 8425 C 794.828 1.54821 3.22126 0
M  V30 8426 C 794.657 3.06871 3.28725 0
M  V30 8427 C 793.427 3.75602 3.38011 0
M  V30 8428 C 795.625 4.04467 3.17665 0
M  V30 8429 N 793.607 5.15257 3.33741 0
M  V30 8430 C 794.978 5.30574 3.20766 0
M  V30 8431 C 797.033 3.96138 3.01627 0
M  V30 8432 C 795.736 6.49319 3.09479 0
M  V30 8433 C 797.762 5.14467 2.91681 0
M  V30 8434 C 797.124 6.3946 2.95416 0
M  V30 8435 H 793.223 0.410092 0.665844 0
M  V30 8436 H 795.807 1.48944 1.25395 0
M  V30 8437 H 793.978 1.05853 3.73697 0
M  V30 8438 H 795.71 1.28467 3.83768 0
M  V30 8439 H 792.465 3.26282 3.43273 0
M  V30 8440 H 792.889 5.88263 3.35076 0
M  V30 8441 H 797.531 3.00345 2.97578 0
M  V30 8442 H 795.249 7.45322 3.12283 0
M  V30 8443 H 798.835 5.09803 2.80343 0
M  V30 8444 H 797.715 7.29483 2.87792 0
M  V30 8445 N 795.218 -1.23913 0.973828 0
M  V30 8446 C 796.464 -1.92436 0.640026 0
M  V30 8447 C 796.797 -1.75875 -0.823512 0
M  V30 8448 O 796.072 -1.11563 -1.59323 0
M  V30 8449 C 796.355 -3.4526 1.0231 0
M  V30 8450 C 796.208 -3.70961 2.54378 0
M  V30 8451 C 797.527 -4.36495 0.562155 0
M  V30 8452 H 794.646 -0.698868 0.233992 0
M  V30 8453 H 797.288 -1.46163 1.21393 0
M  V30 8454 H 795.438 -3.84802 0.534751 0
M  V30 8455 H 797.11 -3.40941 3.10737 0
M  V30 8456 H 795.353 -3.15899 2.97305 0
M  V30 8457 H 796.024 -4.77912 2.76232 0
M  V30 8458 H 798.5 -4.04363 0.981333 0
M  V30 8459 H 797.376 -5.42142 0.858689 0
M  V30 8460 H 797.637 -4.38818 -0.537659 0
M  V30 8461 N 796.696 -0.74468 -1.38897 0
M  V30 8462 C 797.942 -0.297324 -2.00609 0
M  V30 8463 C 798.275 1.11547 -1.58968 0
M  V30 8464 O 797.55 1.76227 -0.823057 0
M  V30 8465 C 797.833 -0.410125 -3.57757 0
M  V30 8466 C 797.686 -1.86338 -4.09387 0
M  V30 8467 C 799.005 0.20176 -4.39637 0
M  V30 8468 H 796.124 -0.109509 -0.728819 0
M  V30 8469 H 798.766 -0.942653 -1.64967 0
M  V30 8470 H 796.916 0.139287 -3.8825 0
M  V30 8471 H 798.588 -2.47042 -3.89574 0
M  V30 8472 H 796.831 -2.38146 -3.62586 0
M  V30 8473 H 797.502 -1.89352 -5.18507 0
M  V30 8474 H 799.978 -0.266703 -4.15244 0
M  V30 8475 H 798.854 0.0925415 -5.48822 0
M  V30 8476 H 799.115 1.289 -4.22891 0
M  V30 8477 N 798.174 1.49689 -0.493057 0
M  V30 8478 C 799.404 2.06536 0.0512397 0
M  V30 8479 C 799.812 1.35459 1.32089 0
M  V30 8480 O 799.155 0.424145 1.78736 0
M  V30 8481 C 799.217 3.57452 0.383231 0
M  V30 8482 C 798.881 4.50163 -0.787555 0
M  V30 8483 C 799.878 4.92151 -1.67582 0
M  V30 8484 C 797.563 4.92565 -0.984109 0
M  V30 8485 C 799.557 5.7527 -2.74487 0
M  V30 8486 C 797.244 5.75463 -2.05634 0
M  V30 8487 C 798.242 6.16719 -2.93507 0
M  V30 8488 O 797.93 6.97961 -3.98881 0
M  V30 8489 H 797.662 0.675862 -0.0136516 0
M  V30 8490 H 800.216 1.9356 -0.687298 0
M  V30 8491 H 798.446 3.68408 1.17526 0
M  V30 8492 H 800.135 3.96572 0.8652 0
M  V30 8493 H 800.901 4.60043 -1.53575 0
M  V30 8494 H 796.78 4.5996 -0.309541 0
M  V30 8495 H 800.324 6.07392 -3.43104 0
M  V30 8496 H 796.221 6.06983 -2.19639 0
M  V30 8497 H 796.989 7.16253 -3.96137 0
M  V30 8498 N 799.652 0.226554 1.55963 0
M  V30 8499 C 800.582 -0.676079 2.23498 0
M  V30 8500 C 801.563 -1.19718 1.20837 0
M  V30 8501 O 802.748 -1.24027 1.49436 0
M  V30 8502 C 799.878 -1.88217 2.91876 0
M  V30 8503 C 798.832 -1.4947 4.01052 0
M  V30 8504 C 798.158 -2.77997 4.56751 0
M  V30 8505 C 799.458 -0.680951 5.17842 0
M  V30 8506 H 801.152 -0.112989 2.99187 0
M  V30 8507 H 798.698 -0.0529046 1.43903 0
M  V30 8508 H 800.651 -2.51911 3.37815 0
M  V30 8509 H 799.375 -2.47031 2.13643 0
M  V30 8510 H 798.034 -0.881199 3.55852 0
M  V30 8511 H 797.682 -3.34966 3.75243 0
M  V30 8512 H 797.382 -2.52803 5.30438 0
M  V30 8513 H 798.906 -3.42625 5.05411 0
M  V30 8514 H 800.32 -1.22171 5.60131 0
M  V30 8515 H 798.717 -0.525898 5.97791 0
M  V30 8516 H 799.787 0.311346 4.83899 0
M  V30 8517 N 801.13 -1.57531 -0.0467866 0
M  V30 8518 C 802.355 -1.93087 -0.757123 0
M  V30 8519 C 802.78 -0.825116 -1.69037 0
M  V30 8520 O 802.138 0.220449 -1.79955 0
M  V30 8521 C 802.186 -3.27669 -1.5055 0
M  V30 8522 O 801.29 -3.18667 -2.61773 0
M  V30 8523 H 800.631 -0.631597 -0.204892 0
M  V30 8524 H 803.161 -2.04599 -0.00755232 0
M  V30 8525 H 803.171 -3.6214 -1.87932 0
M  V30 8526 H 801.846 -4.07717 -0.820931 0
M  V30 8527 H 800.423 -2.95798 -2.27064 0
M  V30 8528 N 802.608 0.318715 -1.54344 0
M  V30 8529 C 803.555 1.39242 -1.84066 0
M  V30 8530 C 804.525 1.51175 -0.688134 0
M  V30 8531 O 805.71 1.66318 -0.935039 0
M  V30 8532 C 802.85 2.75528 -2.07794 0
M  V30 8533 C 801.963 2.72187 -3.35467 0
M  V30 8534 C 801.098 4.00352 -3.4913 0
M  V30 8535 C 800.137 3.91338 -4.7066 0
M  V30 8536 N 799.274 5.11242 -4.81224 0
M  V30 8537 H 804.114 1.13196 -2.75664 0
M  V30 8538 H 801.651 0.547857 -1.36517 0
M  V30 8539 H 803.609 3.54763 -2.19543 0
M  V30 8540 H 802.239 2.99873 -1.19482 0
M  V30 8541 H 801.291 1.84917 -3.3243 0
M  V30 8542 H 802.603 2.61411 -4.24812 0
M  V30 8543 H 801.757 4.88019 -3.60448 0
M  V30 8544 H 800.496 4.1394 -2.57886 0
M  V30 8545 H 799.501 3.02055 -4.59394 0
M  V30 8546 H 800.726 3.7931 -5.63294 0
M  V30 8547 H 798.672 5.25327 -3.92897 0
M  V30 8548 H 798.589 5.0282 -5.64543 0
M  V30 8549 H 799.857 6.0061 -4.96879 0
M  V30 8550 N 804.086 1.46499 0.581025 0
M  V30 8551 C 805.363 1.42372 1.34125 0
M  V30 8552 C 805.743 0.108073 2.10823 0
M  V30 8553 O 805.091 -0.910366 2.09582 0
M  V30 8554 C 805.301 2.65445 2.26583 0
M  V30 8555 C 806.649 3.11664 2.88359 0
M  V30 8556 O 807.673 2.66006 2.36896 0
M  V30 8557 O 806.532 3.90974 3.81839 0
M  V30 8558 H 803.626 0.566262 0.602724 0
M  V30 8559 H 806.172 1.58667 0.601903 0
M  V30 8560 H 804.944 3.52756 1.69348 0
M  V30 8561 H 804.567 2.51618 3.07854 0
M  V30 8562 N 805.565 -0.825799 1.34232 0
M  V30 8563 C 806.793 -1.61363 1.29497 0
M  V30 8564 C 807.208 -1.88341 -0.131536 0
M  V30 8565 O 806.565 -1.47279 -1.07773 0
M  V30 8566 C 806.616 -2.95623 2.08061 0
M  V30 8567 O 806.337 -2.69824 3.45147 0
M  V30 8568 C 807.838 -3.90032 2.10688 0
M  V30 8569 H 805.058 -0.501676 0.445603 0
M  V30 8570 H 807.602 -1.02767 1.76803 0
M  V30 8571 H 805.757 -3.50785 1.64404 0
M  V30 8572 H 806.171 -3.55412 3.85723 0
M  V30 8573 H 807.645 -4.81411 2.70087 0
M  V30 8574 H 808.122 -4.25188 1.10052 0
M  V30 8575 H 808.728 -3.40807 2.54422 0
M  V30 8576 N 807.043 -1.17915 -1.04565 0
M  V30 8577 C 807.976 -0.845021 -2.11978 0
M  V30 8578 C 808.954 0.19089 -1.61476 0
M  V30 8579 O 810.138 0.0709905 -1.88366 0
M  V30 8580 C 807.265 -0.261657 -3.37688 0
M  V30 8581 C 806.311 -1.27396 -4.07029 0
M  V30 8582 S 807.144 -2.82783 -4.54746 0
M  V30 8583 C 808.3 -2.25944 -5.83695 0
M  V30 8584 H 808.533 -1.75472 -2.39993 0
M  V30 8585 H 806.066 -1.00447 -1.17259 0
M  V30 8586 H 808.024 0.0684257 -4.10443 0
M  V30 8587 H 806.685 0.626082 -3.07797 0
M  V30 8588 H 805.878 -0.814557 -4.97374 0
M  V30 8589 H 805.48 -1.55002 -3.40368 0
M  V30 8590 H 807.772 -1.63892 -6.57378 0
M  V30 8591 H 808.715 -3.14569 -6.34391 0
M  V30 8592 H 809.123 -1.69155 -5.3856 0
M  V30 8593 N 808.521 1.23394 -0.980386 0
M  V30 8594 C 809.431 2.28561 -0.528864 0
M  V30 8595 C 810.447 1.68946 0.416329 0
M  V30 8596 O 811.623 1.99355 0.286251 0
M  V30 8597 C 808.688 3.46323 0.16155 0
M  V30 8598 C 807.749 4.21297 -0.825044 0
M  V30 8599 C 806.982 5.33437 -0.167483 0
M  V30 8600 O 807.205 5.60812 1.04146 0
M  V30 8601 O 806.139 5.95637 -0.866047 0
M  V30 8602 H 809.965 2.69326 -1.40346 0
M  V30 8603 H 807.55 1.29325 -0.748019 0
M  V30 8604 H 809.432 4.17811 0.548841 0
M  V30 8605 H 808.107 3.0751 1.01092 0
M  V30 8606 H 807.014 3.52134 -1.26303 0
M  V30 8607 H 808.347 4.6396 -1.64322 0
M  V30 8608 N 809.999 0.752036 1.385 0
M  V30 8609 C 810.946 0.123288 2.3047 0
M  V30 8610 C 811.916 -0.711326 1.50098 0
M  V30 8611 O 813.101 -0.667775 1.78733 0
M  V30 8612 C 810.241 -0.765085 3.36512 0
M  V30 8613 C 809.354 0.0839885 4.31918 0
M  V30 8614 C 808.489 -0.807243 5.25031 0
M  V30 8615 C 807.528 0.0455583 6.12083 0
M  V30 8616 N 806.665 -0.802547 6.97498 0
M  V30 8617 H 811.505 0.913169 2.83664 0
M  V30 8618 H 809.042 0.46195 1.39658 0
M  V30 8619 H 811 -1.29476 3.966 0
M  V30 8620 H 809.63 -1.52077 2.84732 0
M  V30 8621 H 808.682 0.731276 3.73305 0
M  V30 8622 H 809.994 0.74265 4.9324 0
M  V30 8623 H 809.148 -1.40414 5.90228 0
M  V30 8624 H 807.887 -1.49964 4.64071 0
M  V30 8625 H 806.892 0.655137 5.45883 0
M  V30 8626 H 808.117 0.734994 6.75111 0
M  V30 8627 H 806.063 -1.47992 6.39089 0
M  V30 8628 H 805.98 -0.200747 7.55733 0
M  V30 8629 H 807.248 -1.38447 7.67107 0
M  V30 8630 N 811.477 -1.49425 0.500989 0
M  V30 8631 C 812.702 -2.07356 -0.0425154 0
M  V30 8632 C 813.127 -1.35887 -1.30063 0
M  V30 8633 O 812.485 -0.41561 -1.76472 0
M  V30 8634 C 812.533 -3.59518 -0.279188 0
M  V30 8635 O 811.637 -3.89542 -1.3539 0
M  V30 8636 H 810.978 -0.663482 0.0262207 0
M  V30 8637 H 813.508 -1.92231 0.700607 0
M  V30 8638 H 813.518 -4.04791 -0.5107 0
M  V30 8639 H 812.193 -4.10946 0.640009 0
M  V30 8640 H 810.77 -3.56079 -1.10734 0
M  V30 8641 N 812.955 -0.234822 -1.55841 0
M  V30 8642 C 813.865 0.680828 -2.24504 0
M  V30 8643 C 814.881 1.20306 -1.25708 0
M  V30 8644 O 816.057 1.24188 -1.58554 0
M  V30 8645 C 813.122 1.86636 -2.92178 0
M  V30 8646 C 812.183 1.3848 -4.06352 0
M  V30 8647 C 811.416 2.51382 -4.70789 0
M  V30 8648 O 811.639 3.69831 -4.34259 0
M  V30 8649 O 810.573 2.21828 -5.59532 0
M  V30 8650 H 814.399 0.12583 -3.03439 0
M  V30 8651 H 811.984 -0.00381817 -1.494 0
M  V30 8652 H 813.866 2.55845 -3.34845 0
M  V30 8653 H 812.541 2.40921 -2.16192 0
M  V30 8654 H 811.448 0.660341 -3.68226 0
M  V30 8655 H 812.781 0.888177 -4.8412 0
M  V30 8656 N 814.433 1.57553 0.0384317 0
M  V30 8657 C 815.658 1.93485 0.746872 0
M  V30 8658 C 816.083 0.834069 1.68597 0
M  V30 8659 O 815.441 -0.210902 1.80069 0
M  V30 8660 C 815.489 3.28463 1.4881 0
M  V30 8661 O 814.593 3.20051 2.60079 0
M  V30 8662 H 813.934 0.632675 0.201539 0
M  V30 8663 H 816.464 2.046 -0.00329815 0
M  V30 8664 H 816.474 3.63132 1.86009 0
M  V30 8665 H 815.149 4.08147 0.799297 0
M  V30 8666 H 813.726 2.96998 2.25492 0
M  V30 8667 N 815.911 -0.310526 1.54511 0
M  V30 8668 C 816.841 -1.38757 1.878 0
M  V30 8669 C 817.822 -1.53353 0.735991 0
M  V30 8670 O 819.007 -1.67018 0.990887 0
M  V30 8671 C 816.137 -2.75327 2.11689 0
M  V30 8672 C 815.091 -2.75506 3.27537 0
M  V30 8673 C 814.417 -4.15275 3.36824 0
M  V30 8674 C 815.717 -2.38093 4.64875 0
M  V30 8675 H 817.411 -1.11146 2.78005 0
M  V30 8676 H 814.957 -0.533232 1.33763 0
M  V30 8677 H 816.91 -3.50752 2.33562 0
M  V30 8678 H 815.634 -3.04443 1.18245 0
M  V30 8679 H 814.293 -2.02538 3.05572 0
M  V30 8680 H 813.941 -4.41553 2.40915 0
M  V30 8681 H 813.641 -4.16299 4.14692 0
M  V30 8682 H 815.165 -4.92493 3.60947 0
M  V30 8683 H 816.579 -3.03232 4.86542 0
M  V30 8684 H 814.976 -2.50345 5.45387 0
M  V30 8685 H 816.046 -1.33227 4.66239 0
M  V30 8686 N 817.389 -1.46805 -0.573248 0
M  V30 8687 C 818.322 -1.52608 -1.69665 0
M  V30 8688 C 819.3 -0.379426 -1.58111 0
M  V30 8689 O 820.484 -0.584938 -1.79195 0
M  V30 8690 C 817.611 -1.41355 -3.07793 0
M  V30 8691 C 816.657 -2.60321 -3.37839 0
M  V30 8692 S 817.49 -4.22622 -3.28863 0
M  V30 8693 C 818.646 -4.13894 -4.69513 0
M  V30 8694 H 818.879 -2.47653 -1.64485 0
M  V30 8695 H 816.412 -1.34806 -0.752769 0
M  V30 8696 H 818.37 -1.35549 -3.87475 0
M  V30 8697 H 817.031 -0.477213 -3.10454 0
M  V30 8698 H 816.224 -2.48466 -4.38498 0
M  V30 8699 H 815.826 -2.63165 -2.65745 0
M  V30 8700 H 818.118 -3.81158 -5.60111 0
M  V30 8701 H 819.061 -5.14584 -4.86425 0
M  V30 8702 H 819.469 -3.44998 -4.46807 0
M  V30 8703 O 818.906 0.717669 -1.44678 0
M  V30 8704 H 819.597 1.36841 -1.37092 0
M  V30 END ATOM
M  V30 BEGIN BOND
M  V30 END BOND
M  V30 END CTAB
M  END
$$$$
