drugbank_target|Q96RJ0 Trace amine-associated receptor 1 (DB00182; DB01255; DB01576; DB01577; DB06714; DB15665)
 OpenBabel12092119473D

  0  0  0     0  0            999 V3000
M  V30 BEGIN CTAB
M  V30 COUNTS 5542 5621 0 0 0
M  V30 BEGIN ATOM
M  V30 1 H -0.908 1.98254 -0.117106 0
M  V30 2 N 0 1.576 0 0
M  V30 3 C 0.933 2.03868 1.02534 0
M  V30 4 C 1.911 0.928543 1.3348 0
M  V30 5 O 3.095 1.19667 1.45644 0
M  V30 6 C 0.222 2.43627 2.35294 0
M  V30 7 C -0.732 3.65373 2.2001 0
M  V30 8 S 0.101 5.13292 1.52614 0
M  V30 9 C 1.257 5.56322 2.86805 0
M  V30 10 H 1.49 2.90518 0.631377 0
M  V30 11 H -0.977 1.52953 0.210867 0
M  V30 12 H 0.981 2.67203 3.11629 0
M  V30 13 H -0.358 1.57376 2.7183 0
M  V30 14 H -1.165 3.90944 3.18086 0
M  V30 15 H -1.563 3.418 1.51819 0
M  V30 16 H 0.729 5.58782 3.83104 0
M  V30 17 H 1.672 6.56266 2.65933 0
M  V30 18 H 2.08 4.83886 2.90714 0
M  V30 19 N 1.4781 -0.272755 1.55222 0
M  V30 20 C 2.4111 -1.3627 1.83046 0
M  V30 21 C 3.3891 -1.47536 0.683521 0
M  V30 22 O 4.5731 -1.64157 0.926545 0
M  V30 23 C 1.7001 -2.73908 1.99229 0
M  V30 24 C 0.7461 -2.79925 3.21783 0
M  V30 25 S 1.5791 -2.39146 4.79134 0
M  V30 26 C 2.7351 -3.78758 4.9829 0
M  V30 27 H 2.9681 -1.12464 2.75207 0
M  V30 28 H 0.5011 -0.472398 1.46996 0
M  V30 29 H 2.4591 -3.53171 2.09238 0
M  V30 30 H 1.1201 -2.94965 1.07956 0
M  V30 31 H 0.3131 -3.80946 3.29994 0
M  V30 32 H -0.0849 -2.08683 3.10367 0
M  V30 33 H 2.2071 -4.7403 4.84047 0
M  V30 34 H 3.1501 -3.75499 6.00338 0
M  V30 35 H 3.5581 -3.70072 4.26271 0
M  V30 36 N 2.9562 -1.48159 -0.537278 0
M  V30 37 C 4.3672 -1.49429 -1.11928 0
M  V30 38 C 4.7182 -0.26 -1.9447 0
M  V30 39 O 3.8432 0.633489 -2.0692 0
M  V30 40 C 4.4382 -2.70758 -2.03656 0
M  V30 41 C 2.9972 -2.74923 -2.57088 0
M  V30 42 C 2.1442 -2.42835 -1.3389 0
M  V30 43 H 5.0952 -1.55381 -0.322886 0
M  V30 44 H 5.1162 -2.48861 -2.87834 0
M  V30 45 H 4.6282 -3.60575 -1.43553 0
M  V30 46 H 2.7292 -1.89296 -3.20933 0
M  V30 47 H 2.8422 -3.76157 -2.9672 0
M  V30 48 H 1.2062 -1.93836 -1.65226 0
M  V30 49 H 1.9892 -3.34884 -0.755504 0
M  V30 50 N 4.4343 0.785586 -1.36625 0
M  V30 51 C 5.6813 1.54362 -1.31067 0
M  V30 52 C 6.0093 1.94195 0.10893 0
M  V30 53 O 5.2643 1.63262 1.07908 0
M  V30 54 C 5.5633 2.83007 -2.1827 0
M  V30 55 C 5.2293 2.62294 -3.6676 0
M  V30 56 C 3.8913 2.56353 -4.0723 0
M  V30 57 C 6.2433 2.43371 -4.6089 0
M  V30 58 C 3.5713 2.29461 -5.39967 0
M  V30 59 C 5.9233 2.18005 -5.93849 0
M  V30 60 C 4.5873 2.105 -6.3344 0
M  V30 61 H 3.8573 0.564851 -0.479609 0
M  V30 62 H 6.5043 0.906028 -1.68711 0
M  V30 63 H 4.8093 3.51253 -1.73576 0
M  V30 64 H 6.5063 3.40817 -2.11292 0
M  V30 65 H 3.0963 2.67774 -3.34656 0
M  V30 66 H 7.2803 2.46959 -4.30494 0
M  V30 67 H 2.5363 2.22135 -5.69619 0
M  V30 68 H 6.7103 2.02359 -6.66351 0
M  V30 69 H 4.3373 1.89425 -7.36222 0
M  V30 70 N 5.9124 1.20967 1.01018 0
M  V30 71 C 7.1524 1.03511 1.76252 0
M  V30 72 C 7.5164 -0.42458 1.87247 0
M  V30 73 O 8.7174 -0.719508 2.58991 0
M  V30 74 C 6.9884 1.70726 3.13986 0
M  V30 75 S 8.5474 1.68458 4.05176 0
M  V30 76 H 5.3654 0.371037 0.606508 0
M  V30 77 H 7.9674 1.53628 1.20908 0
M  V30 78 H 6.6714 2.76128 3.03614 0
M  V30 79 H 6.2024 1.20767 3.74405 0
M  V30 80 H 8.2174 0.721987 4.90919 0
M  V30 81 N 7.3905 -1.2043 1.01659 0
M  V30 82 C 8.3405 -2.21076 0.557623 0
M  V30 83 C 9.3245 -1.56176 -0.387029 0
M  V30 84 O 10.5165 -1.7575 -0.209996 0
M  V30 85 C 7.6455 -3.43146 -0.102707 0
M  V30 86 C 6.7315 -4.15213 0.863652 0
M  V30 87 N 7.1225 -4.63662 2.02117 0
M  V30 88 C 5.4205 -4.40716 0.684472 0
M  V30 89 C 6.1215 -5.18868 2.62966 0
M  V30 90 N 5.0975 -5.0893 1.91027 0
M  V30 91 H 8.8995 -2.56201 1.44008 0
M  V30 92 H 6.4135 -1.36366 0.881931 0
M  V30 93 H 8.4105 -4.14475 -0.449054 0
M  V30 94 H 7.0705 -3.09526 -0.981003 0
M  V30 95 H 8.0815 -4.58877 2.40109 0
M  V30 96 H 4.7585 -4.17245 -0.14577 0
M  V30 97 H 6.1485 -5.6673 3.60924 0
M  V30 98 N 8.8686 -0.792821 -1.36206 0
M  V30 99 C 9.8166 -0.181555 -2.3189 0
M  V30 100 C 10.8106 0.661025 -1.55971 0
M  V30 101 O 12.0166 0.555728 -1.71206 0
M  V30 102 H 8.3916 -0.0399382 -0.750939 0
M  V30 103 H 10.3626 -1.00394 -2.81005 0
M  V30 104 C 9.1116 0.666444 -3.41253 0
M  V30 105 H 8.4346 0.0274489 -3.99791 0
M  V30 106 H 9.8746 1.06076 -4.10517 0
M  V30 107 C 8.3336 1.82614 -2.83114 0
M  V30 108 O 8.8636 2.9229 -2.75553 0
M  V30 109 N 7.0696 1.63333 -2.40356 0
M  V30 110 H 6.6166 0.741217 -2.46706 0
M  V30 111 H 6.5746 2.41087 -2.01803 0
M  V30 112 N 10.3467 1.47872 -0.545128 0
M  V30 113 C 11.5957 2.01695 -0.0145033 0
M  V30 114 C 11.9087 1.42609 1.33873 0
M  V30 115 O 13.1147 1.88021 1.95858 0
M  V30 116 C 11.5707 3.59892 0.0245068 0
M  V30 117 C 11.1787 4.27966 -1.32475 0
M  V30 118 C 12.9227 4.21507 0.50316 0
M  V30 119 C 10.8297 5.78136 -1.2455 0
M  V30 120 H 9.7597 0.753998 -0.00165172 0
M  V30 121 H 12.4107 1.69985 -0.691175 0
M  V30 122 H 10.7927 3.88509 0.766575 0
M  V30 123 H 11.9667 4.11003 -2.08357 0
M  V30 124 H 10.2817 3.78286 -1.74036 0
M  V30 125 H 12.8787 5.31538 0.580656 0
M  V30 126 H 13.2217 3.87855 1.51243 0
M  V30 127 H 13.7547 3.97376 -0.183681 0
M  V30 128 H 10.4937 6.16388 -2.23039 0
M  V30 129 H 10.0137 5.97469 -0.528282 0
M  V30 130 H 11.6927 6.40099 -0.942488 0
M  V30 131 N 11.8248 0.280983 1.55075 0
M  V30 132 C 13.0738 -0.334784 1.98902 0
M  V30 133 C 13.3868 -1.56534 1.17288 0
M  V30 134 O 14.5928 -2.25443 1.51287 0
M  V30 135 C 13.0488 -0.646994 3.54037 0
M  V30 136 C 12.6568 0.564085 4.44435 0
M  V30 137 C 14.4008 -1.22506 4.06439 0
M  V30 138 C 12.3078 0.226137 5.90967 0
M  V30 139 H 11.2378 -0.128866 0.742906 0
M  V30 140 H 13.8888 0.386556 1.79382 0
M  V30 141 H 12.2708 -1.42739 3.6938 0
M  V30 142 H 13.4448 1.34082 4.40861 0
M  V30 143 H 11.7598 1.0594 4.02698 0
M  V30 144 H 14.3568 -1.49182 5.13468 0
M  V30 145 H 14.6998 -2.16085 3.55827 0
M  V30 146 H 15.2328 -0.50682 3.94558 0
M  V30 147 H 11.9718 1.12996 6.45687 0
M  V30 148 H 11.4918 -0.513717 5.97596 0
M  V30 149 H 13.1708 -0.179539 6.46751 0
M  V30 150 N 13.3029 -1.57598 0.00835791 0
M  V30 151 C 14.2509 -2.10078 -0.998508 0
M  V30 152 C 15.2449 -1.02262 -1.35051 0
M  V30 153 O 16.4509 -1.20719 -1.33518 0
M  V30 154 H 12.8259 -0.670903 -0.339696 0
M  V30 155 H 14.7969 -2.93648 -0.530398 0
M  V30 156 C 13.5459 -2.62615 -2.27879 0
M  V30 157 H 12.8689 -3.45213 -2.01662 0
M  V30 158 H 14.3089 -3.03004 -2.96588 0
M  V30 159 C 12.7679 -1.54407 -2.99433 0
M  V30 160 O 13.2979 -0.931812 -3.90743 0
M  V30 161 N 11.5039 -1.2695 -2.61404 0
M  V30 162 H 11.0509 -1.76924 -1.87232 0
M  V30 163 H 11.0089 -0.547704 -3.09593 0
M  V30 164 N 14.781 0.264519 -1.55364 0
M  V30 165 C 16.03 0.992812 -1.75574 0
M  V30 166 C 16.343 1.87142 -0.568979 0
M  V30 167 O 17.549 2.63513 -0.653682 0
M  V30 168 C 16.005 1.81519 -3.10771 0
M  V30 169 C 15.613 0.984839 -4.37041 0
M  V30 170 C 17.357 2.53727 -3.40327 0
M  V30 171 C 15.264 1.80209 -5.63275 0
M  V30 172 H 14.194 0.374412 -0.65447 0
M  V30 173 H 16.845 0.248138 -1.81815 0
M  V30 174 H 15.227 2.60115 -2.98591 0
M  V30 175 H 16.401 0.242455 -4.60162 0
M  V30 176 H 14.716 0.37691 -4.14691 0
M  V30 177 H 17.313 3.15292 -4.3185 0
M  V30 178 H 17.656 3.24447 -2.60845 0
M  V30 179 H 18.189 1.82156 -3.53644 0
M  V30 180 H 14.928 1.13896 -6.45529 0
M  V30 181 H 14.448 2.52022 -5.44284 0
M  V30 182 H 16.127 2.37364 -6.01887 0
M  V30 183 N 16.2591 1.48442 0.529413 0
M  V30 184 C 17.4841 1.60406 1.31471 0
M  V30 185 C 17.9091 0.264738 1.86228 0
M  V30 186 O 17.2671 -0.763668 1.64432 0
M  V30 187 C 17.3151 2.65419 2.44101 0
M  V30 188 O 16.4191 2.22618 3.47153 0
M  V30 189 H 15.7601 0.537863 0.389357 0
M  V30 190 H 18.2901 1.94432 0.636965 0
M  V30 191 H 18.3001 2.86709 2.90279 0
M  V30 192 H 16.9751 3.62652 2.03608 0
M  V30 193 H 15.5521 2.11543 3.0709 0
M  V30 194 N 17.7372 -0.778329 1.37039 0
M  V30 195 C 18.9772 -1.54973 1.33276 0
M  V30 196 C 19.3412 -1.91816 -0.0839376 0
M  V30 197 O 20.5422 -2.6767 -0.246228 0
M  V30 198 C 18.8132 -2.78517 2.23971 0
M  V30 199 S 20.3722 -3.6865 2.37997 0
M  V30 200 H 17.1902 -0.530639 0.473226 0
M  V30 201 H 19.7922 -0.915806 1.72723 0
M  V30 202 H 18.4962 -2.4952 3.25835 0
M  V30 203 H 18.0272 -3.46875 1.85584 0
M  V30 204 H 20.0422 -4.70182 1.58567 0
M  V30 205 N 19.2153 -1.21501 -1.00376 0
M  V30 206 C 20.4613 -1.03452 -1.74429 0
M  V30 207 C 20.7943 0.430764 -1.89362 0
M  V30 208 O 20.0693 1.31962 -1.42886 0
M  V30 209 C 20.3523 -1.73375 -3.15615 0
M  V30 210 C 20.2053 -3.27431 -3.08397 0
M  V30 211 C 21.5243 -1.47732 -4.14564 0
M  V30 212 H 18.6433 -0.377226 -0.633143 0
M  V30 213 H 21.2853 -1.49693 -1.17013 0
M  V30 214 H 19.4353 -1.34064 -3.64636 0
M  V30 215 H 21.1073 -3.76119 -2.67081 0
M  V30 216 H 19.3503 -3.5767 -2.45468 0
M  V30 217 H 20.0213 -3.71524 -4.08258 0
M  V30 218 H 22.4973 -1.8186 -3.74254 0
M  V30 219 H 21.3733 -1.99169 -5.11491 0
M  V30 220 H 21.6343 -0.407589 -4.40217 0
M  V30 221 N 20.6934 1.19889 -1.02296 0
M  V30 222 C 21.6404 2.22901 -0.598651 0
M  V30 223 C 22.6104 1.61588 0.384521 0
M  V30 224 O 23.7954 1.88697 0.282522 0
M  V30 225 C 20.9354 3.45063 0.0504476 0
M  V30 226 C 20.0484 4.20783 -0.978053 0
M  V30 227 C 19.1834 5.30356 -0.299338 0
M  V30 228 C 18.2224 5.97826 -1.31416 0
M  V30 229 N 17.3594 6.98975 -0.661667 0
M  V30 230 H 22.1994 2.58554 -1.48169 0
M  V30 231 H 19.7364 1.27039 -0.741584 0
M  V30 232 H 21.6944 4.14831 0.443971 0
M  V30 233 H 20.3244 3.10084 0.897097 0
M  V30 234 H 19.3764 3.50018 -1.48969 0
M  V30 235 H 20.6884 4.67109 -1.74958 0
M  V30 236 H 19.8424 6.06516 0.149347 0
M  V30 237 H 18.5814 4.85084 0.504445 0
M  V30 238 H 17.5864 5.20422 -1.77317 0
M  V30 239 H 18.8114 6.45183 -2.11933 0
M  V30 240 H 16.7574 6.55886 0.122132 0
M  V30 241 H 16.6744 7.43461 -1.37117 0
M  V30 242 H 17.9424 7.7914 -0.236785 0
M  V30 243 N 22.1715 0.800033 1.35784 0
M  V30 244 C 23.1195 0.193851 2.31791 0
M  V30 245 C 24.1135 -0.652744 1.56319 0
M  V30 246 O 25.3195 -0.546641 1.71499 0
M  V30 247 H 21.6945 0.04392 0.750716 0
M  V30 248 H 23.6655 1.01883 2.80468 0
M  V30 249 C 22.4145 -0.648338 3.41602 0
M  V30 250 H 21.7375 -0.00624665 3.998 0
M  V30 251 H 23.1775 -1.03898 4.11073 0
M  V30 252 C 21.6365 -1.8111 2.84079 0
M  V30 253 O 22.1665 -2.90825 2.77099 0
M  V30 254 N 20.3725 -1.62056 2.41218 0
M  V30 255 H 19.9195 -0.728123 2.47095 0
M  V30 256 H 19.8775 -2.40013 2.03079 0
M  V30 257 N 23.6496 -1.47581 0.552962 0
M  V30 258 C 24.5976 -2.31648 -0.21023 0
M  V30 259 C 25.5916 -1.42663 -0.913432 0
M  V30 260 O 26.7976 -1.5945 -0.835201 0
M  V30 261 H 23.1726 -0.746989 -0.0866676 0
M  V30 262 H 25.1436 -2.93869 0.518051 0
M  V30 263 C 23.8926 -3.25226 -1.22976 0
M  V30 264 H 23.2156 -3.93658 -0.698077 0
M  V30 265 H 24.6556 -3.86889 -1.73473 0
M  V30 266 C 23.1146 -2.48448 -2.27542 0
M  V30 267 O 23.6446 -2.22585 -3.34393 0
M  V30 268 N 21.8506 -2.09532 -2.01357 0
M  V30 269 H 21.3976 -2.30765 -1.14478 0
M  V30 270 H 21.3556 -1.58476 -2.71538 0
M  V30 271 N 25.1277 -0.289203 -1.54924 0
M  V30 272 C 26.3737 0.316922 -2.00916 0
M  V30 273 C 26.7287 1.52424 -1.17408 0
M  V30 274 O 26.0217 1.90097 -0.239536 0
M  V30 275 C 26.2157 0.736119 -3.49737 0
M  V30 276 C 26.0447 -0.429036 -4.47649 0
M  V30 277 C 24.8147 -0.917311 -4.96904 0
M  V30 278 C 27.0127 -1.27016 -4.98369 0
M  V30 279 N 24.9947 -2.05046 -5.78644 0
M  V30 280 C 26.3657 -2.25097 -5.77695 0
M  V30 281 C 28.4207 -1.30188 -4.80578 0
M  V30 282 C 27.1237 -3.26114 -6.41126 0
M  V30 283 C 29.1497 -2.30057 -5.44819 0
M  V30 284 C 28.5117 -3.2687 -6.23968 0
M  V30 285 H 24.6107 0.0807535 -0.777819 0
M  V30 286 H 27.1947 -0.416434 -1.90194 0
M  V30 287 H 25.3657 1.43867 -3.60773 0
M  V30 288 H 27.0977 1.32078 -3.82541 0
M  V30 289 H 23.8527 -0.494248 -4.71014 0
M  V30 290 H 24.2767 -2.62108 -6.24202 0
M  V30 291 H 28.9187 -0.567163 -4.18979 0
M  V30 292 H 26.6367 -4.00512 -7.01866 0
M  V30 293 H 30.2227 -2.33271 -5.32988 0
M  V30 294 H 29.1027 -4.02883 -6.72796 0
M  V30 295 N 26.6058 1.57591 -0.0167156 0
M  V30 296 C 27.8308 1.9598 0.67872 0
M  V30 297 C 28.2558 0.892546 1.65575 0
M  V30 298 O 27.6138 -0.147772 1.80697 0
M  V30 299 C 27.6618 3.33468 1.37227 0
M  V30 300 O 26.7658 3.28954 2.48722 0
M  V30 301 H 26.1068 0.639339 0.17928 0
M  V30 302 H 28.6368 2.04463 -0.0748802 0
M  V30 303 H 28.6468 3.69417 1.7319 0
M  V30 304 H 27.3218 4.10694 0.656007 0
M  V30 305 H 25.8988 3.04705 2.14963 0
M  V30 306 N 28.0839 -0.256276 1.55502 0
M  V30 307 C 29.0319 -1.33694 1.90338 0
M  V30 308 C 30.0259 -1.50299 0.781441 0
M  V30 309 O 31.2319 -1.51885 0.965966 0
M  V30 310 H 27.6069 -0.447483 0.60437 0
M  V30 311 H 29.5779 -1.01574 2.8058 0
M  V30 312 C 28.3269 -2.68724 2.20642 0
M  V30 313 H 27.6499 -2.56743 3.06469 0
M  V30 314 H 29.0899 -3.43237 2.48926 0
M  V30 315 C 27.5489 -3.21101 1.01959 0
M  V30 316 O 28.0789 -4.0084 0.262762 0
M  V30 317 N 26.2849 -2.79003 0.812746 0
M  V30 318 H 25.8319 -2.14271 1.42989 0
M  V30 319 H 25.7899 -3.14393 0.0203076 0
M  V30 320 N 29.562 -1.4872 -0.521534 0
M  V30 321 C 30.839 -1.4766 -1.2828 0
M  V30 322 C 31.219 -0.19292 -2.10217 0
M  V30 323 O 30.567 0.825193 -2.13079 0
M  V30 324 C 30.777 -2.74358 -2.15705 0
M  V30 325 C 32.125 -3.23028 -2.75569 0
M  V30 326 O 33.149 -2.75333 -2.25987 0
M  V30 327 O 32.008 -4.0604 -3.65778 0
M  V30 328 H 29.102 -0.590085 -0.579421 0
M  V30 329 H 31.648 -1.60963 -0.537492 0
M  V30 330 H 30.42 -3.59292 -1.54999 0
M  V30 331 H 30.043 -2.63816 -2.97467 0
M  V30 332 N 31.0401 0.771051 -1.3745 0
M  V30 333 C 32.2861 1.5319 -1.32894 0
M  V30 334 C 32.6191 1.94008 0.0862511 0
M  V30 335 O 31.8941 1.64124 1.04373 0
M  V30 336 C 32.1771 2.79648 -2.26868 0
M  V30 337 C 32.0301 2.45079 -3.77169 0
M  V30 338 C 33.3491 3.81583 -2.19277 0
M  V30 339 H 30.4681 0.555744 -0.484064 0
M  V30 340 H 33.1101 0.884492 -1.68157 0
M  V30 341 H 31.2601 3.34891 -1.96926 0
M  V30 342 H 32.9321 1.95745 -4.1771 0
M  V30 343 H 31.1751 1.77767 -3.95704 0
M  V30 344 H 31.8461 3.35478 -4.38359 0
M  V30 345 H 34.3221 3.35835 -2.45671 0
M  V30 346 H 33.1981 4.67787 -2.87171 0
M  V30 347 H 33.4591 4.25897 -1.18592 0
M  V30 348 N 32.5182 1.22032 0.997298 0
M  V30 349 C 33.9342 0.979326 1.26021 0
M  V30 350 C 34.1342 -0.32972 1.98784 0
M  V30 351 O 33.1902 -1.05345 2.29475 0
M  V30 352 C 34.5032 2.17509 2.07631 0
M  V30 353 C 36.0512 2.21817 2.2083 0
M  V30 354 C 36.5262 3.40933 3.05825 0
M  V30 355 N 38.0172 3.41067 3.13412 0
M  V30 356 C 38.7522 4.29885 3.79455 0
M  V30 357 N 38.2482 5.28914 4.47462 0
M  V30 358 N 40.0412 4.17673 3.76173 0
M  V30 359 H 32.1922 2.06202 0.509352 0
M  V30 360 H 34.4552 0.90334 0.287541 0
M  V30 361 H 34.1612 3.12415 1.61524 0
M  V30 362 H 34.0352 2.17206 3.08385 0
M  V30 363 H 36.4222 1.27462 2.66153 0
M  V30 364 H 36.5032 2.2616 1.1952 0
M  V30 365 H 36.1472 4.35586 2.61203 0
M  V30 366 H 36.0772 3.33829 4.07266 0
M  V30 367 H 38.5682 2.69406 2.65007 0
M  V30 368 H 38.8812 5.92973 4.95583 0
M  V30 369 H 37.2262 5.32831 4.46224 0
M  V30 370 H 40.4172 3.39564 3.22202 0
M  V30 371 H 40.5902 4.87098 4.27363 0
M  V30 372 N 33.9963 -1.19345 1.0293 0
M  V30 373 C 34.9593 -2.20793 0.615069 0
M  V30 374 C 35.9593 -1.57553 -0.321533 0
M  V30 375 O 37.1493 -1.73862 -0.108483 0
M  V30 376 C 34.2813 -3.40754 -0.0999222 0
M  V30 377 H 35.4743 -2.58955 1.51269 0
M  V30 378 H 33.0273 -1.3303 0.820534 0
M  V30 379 H 33.7623 -3.0811 -1.01187 0
M  V30 380 H 33.5473 -3.87889 0.57309 0
M  V30 381 H 35.0373 -4.15898 -0.376645 0
M  V30 382 N 35.4744 -0.807222 -1.35358 0
M  V30 383 C 36.6994 -0.399309 -2.0352 0
M  V30 384 C 37.1244 0.981986 -1.60433 0
M  V30 385 O 36.4824 1.63601 -0.781299 0
M  V30 386 C 36.5304 -0.491552 -3.57234 0
M  V30 387 O 35.6344 0.494754 -4.09421 0
M  V30 388 H 34.9754 -0.166682 -0.642739 0
M  V30 389 H 37.5054 -1.09328 -1.72941 0
M  V30 390 H 37.5154 -0.361588 -4.06395 0
M  V30 391 H 36.1904 -1.49907 -3.87944 0
M  V30 392 H 34.7674 0.324977 -3.71481 0
M  V30 393 N 36.9525 1.47285 -0.560781 0
M  V30 394 C 37.8825 2.32857 0.173105 0
M  V30 395 C 38.8635 1.44009 0.905281 0
M  V30 396 O 40.0485 1.7286 0.885046 0
M  V30 397 C 37.1785 3.25861 1.20133 0
M  V30 398 C 36.1325 4.23978 0.585388 0
M  V30 399 C 35.4585 5.06332 1.7185 0
M  V30 400 C 36.7585 5.20242 -0.463178 0
M  V30 401 H 38.4525 2.94466 -0.541307 0
M  V30 402 H 35.9985 1.41601 -0.261764 0
M  V30 403 H 37.9515 3.84569 1.72293 0
M  V30 404 H 36.6755 2.62315 1.94573 0
M  V30 405 H 35.3345 3.66501 0.085054 0
M  V30 406 H 34.9825 4.39186 2.45203 0
M  V30 407 H 34.6825 5.72762 1.31213 0
M  V30 408 H 36.2065 5.67899 2.24329 0
M  V30 409 H 37.6205 5.73293 -0.027502 0
M  V30 410 H 36.0175 5.94896 -0.788627 0
M  V30 411 H 37.0875 4.65504 -1.35773 0
M  V30 412 N 38.4306 0.297415 1.54768 0
M  V30 413 C 39.6606 -0.315165 2.04182 0
M  V30 414 C 40.0686 -1.4834 1.17439 0
M  V30 415 O 39.4116 -1.82695 0.191891 0
M  V30 416 C 39.4736 -0.837583 3.49607 0
M  V30 417 C 39.1376 0.204912 4.5654 0
M  V30 418 C 40.1346 1.03214 5.09552 0
M  V30 419 C 37.8196 0.345578 5.0111 0
M  V30 420 C 39.8136 1.986 6.05671 0
M  V30 421 C 37.5006 1.30289 5.97049 0
M  V30 422 C 38.4986 2.12159 6.49213 0
M  V30 423 O 38.1866 3.06268 7.43273 0
M  V30 424 H 37.9186 -0.0729646 0.672051 0
M  V30 425 H 40.4726 0.433907 2.00765 0
M  V30 426 H 38.7026 -1.63712 3.50336 0
M  V30 427 H 40.3916 -1.36566 3.82236 0
M  V30 428 H 41.1576 0.934312 4.75916 0
M  V30 429 H 37.0366 -0.28171 4.60138 0
M  V30 430 H 40.5806 2.62542 6.46311 0
M  V30 431 H 36.4776 1.40145 6.30103 0
M  V30 432 H 37.2456 3.01205 7.61064 0
M  V30 433 N 39.9087 -1.5758 0.0250728 0
M  V30 434 C 41.1337 -1.96337 -0.668317 0
M  V30 435 C 41.5587 -0.901314 -1.651 0
M  V30 436 O 40.9167 0.138187 -1.80773 0
M  V30 437 C 40.9647 -3.34191 -1.35457 0
M  V30 438 O 40.0687 -3.30269 -2.46974 0
M  V30 439 H 39.4097 -0.640281 -0.175887 0
M  V30 440 H 41.9397 -2.0442 0.0857224 0
M  V30 441 H 41.9497 -3.70331 -1.71228 0
M  V30 442 H 40.6247 -4.11036 -0.634218 0
M  V30 443 H 39.2017 -3.05841 -2.13344 0
M  V30 444 N 41.3868 0.248026 -1.55636 0
M  V30 445 C 42.3168 1.31079 -1.93237 0
M  V30 446 C 43.2978 1.50264 -0.797174 0
M  V30 447 O 44.4828 1.62891 -1.05737 0
M  V30 448 C 41.6128 2.66575 -2.22609 0
M  V30 449 C 40.5668 2.62087 -3.3837 0
M  V30 450 C 39.8928 4.01369 -3.53281 0
M  V30 451 C 41.1928 2.19171 -4.7409 0
M  V30 452 H 42.8868 0.998556 -2.82257 0
M  V30 453 H 40.4328 0.47891 -1.35803 0
M  V30 454 H 42.3858 3.41057 -2.47503 0
M  V30 455 H 41.1098 2.99432 -1.30414 0
M  V30 456 H 39.7688 1.90063 -3.13483 0
M  V30 457 H 39.4168 4.31489 -2.58508 0
M  V30 458 H 39.1168 3.99254 -4.31127 0
M  V30 459 H 40.6408 4.77552 -3.80495 0
M  V30 460 H 42.0548 2.83384 -4.98363 0
M  V30 461 H 40.4518 2.2817 -5.5503 0
M  V30 462 H 41.5218 1.14336 -4.71227 0
M  V30 463 N 42.8649 1.48995 0.513639 0
M  V30 464 C 43.7979 1.59319 1.63379 0
M  V30 465 C 44.7759 0.442816 1.56454 0
M  V30 466 O 45.9599 0.656655 1.76693 0
M  V30 467 C 43.0869 1.5364 3.01848 0
M  V30 468 C 42.1329 2.7372 3.27078 0
M  V30 469 S 42.9659 4.35528 3.1157 0
M  V30 470 C 44.1219 4.32473 4.52458 0
M  V30 471 H 44.3549 2.54079 1.54374 0
M  V30 472 H 41.8879 1.3773 0.697849 0
M  V30 473 H 43.8459 1.51049 3.81699 0
M  V30 474 H 42.5069 0.601898 3.08279 0
M  V30 475 H 41.6999 2.6593 4.28132 0
M  V30 476 H 41.3019 2.73657 2.54927 0
M  V30 477 H 43.5939 4.03414 5.44301 0
M  V30 478 H 44.5369 5.33762 4.65299 0
M  V30 479 H 44.9449 3.62718 4.32546 0
M  V30 480 N 44.343 -0.763751 1.37857 0
M  V30 481 C 45.589 -1.52483 1.33704 0
M  V30 482 C 45.922 -1.94051 -0.0759612 0
M  V30 483 O 45.197 -1.64675 -1.03501 0
M  V30 484 C 45.48 -2.78441 2.28348 0
M  V30 485 C 45.333 -2.43075 3.78463 0
M  V30 486 C 46.652 -3.80415 2.21298 0
M  V30 487 H 43.771 -0.553169 0.487005 0
M  V30 488 H 46.413 -0.875562 1.68624 0
M  V30 489 H 44.563 -3.33842 1.987 0
M  V30 490 H 46.235 -1.93527 4.18742 0
M  V30 491 H 44.478 -1.75666 3.96641 0
M  V30 492 H 45.149 -3.33149 4.40132 0
M  V30 493 H 47.625 -3.34527 2.47449 0
M  V30 494 H 46.501 -4.66257 2.89647 0
M  V30 495 H 46.762 -4.25262 1.20849 0
M  V30 496 N 45.8211 -1.22559 -0.990812 0
M  V30 497 C 46.7511 -1.0218 -2.09956 0
M  V30 498 C 47.7321 0.0579394 -1.70001 0
M  V30 499 O 48.9171 -0.104684 -1.93918 0
M  V30 500 C 46.0471 -0.601023 -3.4206 0
M  V30 501 C 45.0011 -1.62694 -3.95872 0
M  V30 502 C 44.3271 -1.06193 -5.24049 0
M  V30 503 C 45.6271 -3.01743 -4.2632 0
M  V30 504 H 47.3211 -1.94916 -2.27262 0
M  V30 505 H 44.8671 -0.938566 -1.09211 0
M  V30 506 H 46.8201 -0.445561 -4.19038 0
M  V30 507 H 45.5441 0.362005 -3.24588 0
M  V30 508 H 44.2031 -1.77021 -3.21028 0
M  V30 509 H 43.8511 -0.0901903 -5.02919 0
M  V30 510 H 43.5511 -1.74732 -5.61019 0
M  V30 511 H 45.0751 -0.918092 -6.03658 0
M  V30 512 H 46.4891 -2.90777 -4.94087 0
M  V30 513 H 44.8861 -3.67425 -4.74467 0
M  V30 514 H 45.9561 -3.51518 -3.34011 0
M  V30 515 N 47.2992 1.18797 -1.03562 0
M  V30 516 C 48.5482 1.87978 -0.731235 0
M  V30 517 C 48.8612 1.80911 0.743671 0
M  V30 518 O 50.0672 2.45407 1.16137 0
M  V30 519 C 48.5232 3.3721 -1.25768 0
M  V30 520 C 48.1312 3.52818 -2.76085 0
M  V30 521 C 49.8752 4.11825 -1.0296 0
M  V30 522 C 47.7822 4.9598 -3.22114 0
M  V30 523 H 46.7122 0.704063 -0.269835 0
M  V30 524 H 49.3632 1.34266 -1.25079 0
M  V30 525 H 47.7452 3.90359 -0.666011 0
M  V30 526 H 48.9192 3.09965 -3.40966 0
M  V30 527 H 47.2342 2.91602 -2.97249 0
M  V30 528 H 49.8312 5.17411 -1.34869 0
M  V30 529 H 50.1742 4.16287 0.0333546 0
M  V30 530 H 50.7072 3.64833 -1.58562 0
M  V30 531 H 47.4462 4.96684 -4.27768 0
M  V30 532 H 46.9662 5.39569 -2.61965 0
M  V30 533 H 48.6452 5.6467 -3.15844 0
M  V30 534 N 48.7773 0.814389 1.34928 0
M  V30 535 C 50.0263 0.394871 1.97797 0
M  V30 536 C 50.3393 -1.04555 1.65311 0
M  V30 537 O 51.5453 -1.56856 2.21604 0
M  V30 538 C 50.0013 0.655103 3.53888 0
M  V30 539 C 49.6093 2.10858 3.95276 0
M  V30 540 C 51.3533 0.301329 4.23429 0
M  V30 541 C 49.2603 2.31415 5.44244 0
M  V30 542 H 48.1903 0.143913 0.740139 0
M  V30 543 H 50.8413 0.999544 1.53888 0
M  V30 544 H 49.2233 -0.0196253 3.95995 0
M  V30 545 H 50.3973 2.82176 3.64298 0
M  V30 546 H 48.7123 2.42297 3.38646 0
M  V30 547 H 51.3093 0.432869 5.32945 0
M  V30 548 H 51.6523 -0.75331 4.09428 0
M  V30 549 H 52.1853 0.930288 3.86769 0
M  V30 550 H 48.9243 3.35353 5.63222 0
M  V30 551 H 48.4443 1.6463 5.76764 0
M  V30 552 H 50.1233 2.13352 6.10811 0
M  V30 553 N 50.2554 -1.46986 0.568584 0
M  V30 554 C 51.1854 -2.32946 -0.160753 0
M  V30 555 C 52.1664 -1.44487 -0.897631 0
M  V30 556 O 53.3514 -1.73327 -0.875867 0
M  V30 557 C 50.4814 -3.26494 -1.18403 0
M  V30 558 C 49.4354 -4.24282 -0.562895 0
M  V30 559 C 48.7614 -5.07236 -1.69163 0
M  V30 560 C 50.0614 -5.19989 0.490761 0
M  V30 561 H 51.7554 -2.94175 0.556916 0
M  V30 562 H 49.3014 -1.4146 0.26927 0
M  V30 563 H 51.2544 -3.85477 -1.70251 0
M  V30 564 H 49.9784 -2.63343 -1.93179 0
M  V30 565 H 48.6374 -3.66541 -0.0656164 0
M  V30 566 H 48.2854 -4.4048 -2.42871 0
M  V30 567 H 47.9854 -5.7345 -1.28174 0
M  V30 568 H 49.5094 -5.6908 -2.21314 0
M  V30 569 H 50.9234 -5.73271 0.0579047 0
M  V30 570 H 49.3204 -5.94469 0.820165 0
M  V30 571 H 50.3904 -4.64777 1.3824 0
M  V30 572 N 51.7335 -0.305618 -1.54608 0
M  V30 573 C 52.9615 0.304775 -2.04643 0
M  V30 574 C 53.3765 1.47167 -1.18268 0
M  V30 575 O 52.7335 1.81296 -0.209328 0
M  V30 576 C 52.7845 0.756564 -3.53495 0
M  V30 577 O 52.5055 -0.36389 -4.36586 0
M  V30 578 C 54.0065 1.43163 -4.19546 0
M  V30 579 H 51.2265 0.0655481 -0.667791 0
M  V30 580 H 53.7705 -0.446592 -1.99564 0
M  V30 581 H 51.9255 1.45794 -3.58919 0
M  V30 582 H 52.3395 -0.0113121 -5.24499 0
M  V30 583 H 53.8135 1.69886 -5.25207 0
M  V30 584 H 54.2905 2.37318 -3.69563 0
M  V30 585 H 54.8965 0.773307 -4.18211 0
M  V30 586 N 53.2116 1.57565 -0.0334293 0
M  V30 587 C 54.4396 1.9628 0.654347 0
M  V30 588 C 54.8546 0.910138 1.65414 0
M  V30 589 O 54.2116 -0.107595 1.82183 0
M  V30 590 C 54.2626 3.35067 1.35693 0
M  V30 591 O 53.9836 4.36296 0.397191 0
M  V30 592 C 55.4846 3.88439 2.13613 0
M  V30 593 H 52.7046 0.646369 0.180132 0
M  V30 594 H 55.2486 2.04282 -0.0944721 0
M  V30 595 H 53.4036 3.2827 2.05712 0
M  V30 596 H 53.8176 5.1678 0.896597 0
M  V30 597 H 55.2916 4.8788 2.58219 0
M  V30 598 H 55.7686 3.22914 2.97696 0
M  V30 599 H 56.3746 3.98516 1.48543 0
M  V30 600 N 54.6897 -0.239769 1.55765 0
M  V30 601 C 55.6197 -1.30052 1.9393 0
M  V30 602 C 56.6007 -1.49839 0.805132 0
M  V30 603 O 57.7857 -1.62328 1.06599 0
M  V30 604 C 54.9157 -2.65391 2.2402 0
M  V30 605 C 53.8697 -2.60289 3.39755 0
M  V30 606 C 53.1957 -3.99489 3.55405 0
M  V30 607 C 54.4957 -2.16654 4.75246 0
M  V30 608 H 56.1897 -0.983573 2.82783 0
M  V30 609 H 53.7357 -0.471701 1.36055 0
M  V30 610 H 55.6887 -3.3974 2.49308 0
M  V30 611 H 54.4127 -2.98736 1.32 0
M  V30 612 H 53.0717 -1.88398 3.14487 0
M  V30 613 H 52.7197 -4.30112 2.60793 0
M  V30 614 H 52.4197 -3.96962 4.33238 0
M  V30 615 H 53.9437 -4.75528 3.83022 0
M  V30 616 H 55.3577 -2.80737 4.99859 0
M  V30 617 H 53.7547 -2.25223 5.56232 0
M  V30 618 H 54.8247 -1.11835 4.71827 0
M  V30 619 N 56.1678 -1.49265 -0.50573 0
M  V30 620 C 57.4138 -1.58748 -1.26202 0
M  V30 621 C 57.7468 -0.271227 -1.92297 0
M  V30 622 O 57.0218 0.724831 -1.80489 0
M  V30 623 C 57.3048 -2.74332 -2.33268 0
M  V30 624 C 57.1578 -4.15737 -1.71705 0
M  V30 625 C 58.4768 -2.85576 -3.34865 0
M  V30 626 H 55.5958 -0.577826 -0.457478 0
M  V30 627 H 58.2378 -1.81532 -0.560897 0
M  V30 628 H 56.3878 -2.55036 -2.93068 0
M  V30 629 H 58.0598 -4.46537 -1.15769 0
M  V30 630 H 56.3028 -4.21605 -1.02135 0
M  V30 631 H 56.9738 -4.92477 -2.49341 0
M  V30 632 H 59.4498 -3.03127 -2.8505 0
M  V30 633 H 58.3258 -3.68135 -4.07146 0
M  V30 634 H 58.5868 -1.94732 -3.96903 0
M  V30 635 N 57.6459 0.756429 -1.3826 0
M  V30 636 C 58.8939 1.51248 -1.34047 0
M  V30 637 C 59.2149 1.94875 0.0698372 0
M  V30 638 O 58.4849 1.67436 1.01696 0
M  V30 639 H 57.0649 0.561018 -0.493222 0
M  V30 640 H 59.7269 0.899347 -1.7291 0
M  V30 641 H 58.8229 2.40472 -1.98947 0
M  V30 642 N 59.124 1.23083 0.984299 0
M  V30 643 C 60.072 1.00593 2.09723 0
M  V30 644 C 61.066 -0.0538014 1.69315 0
M  V30 645 O 62.272 0.0993719 1.79725 0
M  V30 646 H 58.647 0.30817 0.685956 0
M  V30 647 H 60.618 1.95012 2.2586 0
M  V30 648 C 59.367 0.609601 3.42314 0
M  V30 649 H 58.69 1.41675 3.73856 0
M  V30 650 H 60.13 0.491726 4.21139 0
M  V30 651 C 58.589 -0.681745 3.2993 0
M  V30 652 O 59.119 -1.73192 3.62446 0
M  V30 653 N 57.325 -0.656178 2.83095 0
M  V30 654 H 56.872 0.198759 2.56832 0
M  V30 655 H 56.83 -1.52044 2.75191 0
M  V30 656 N 60.6021 -1.18246 1.0419 0
M  V30 657 C 61.5321 -2.24127 0.654914 0
M  V30 658 C 62.5131 -1.66617 -0.342451 0
M  V30 659 O 63.6981 -1.92924 -0.222277 0
M  V30 660 C 60.8281 -3.47295 0.0183757 0
M  V30 661 C 59.7821 -4.17563 0.939414 0
M  V30 662 C 59.1081 -5.34438 0.167286 0
M  V30 663 C 60.4081 -4.70917 2.25908 0
M  V30 664 H 62.1021 -2.56753 1.54007 0
M  V30 665 H 59.6481 -1.23414 0.74195 0
M  V30 666 H 61.6011 -4.20572 -0.264082 0
M  V30 667 H 60.3251 -3.13907 -0.901664 0
M  V30 668 H 58.9841 -3.46186 1.20628 0
M  V30 669 H 58.6321 -4.97298 -0.7552 0
M  V30 670 H 58.3321 -5.82388 0.780901 0
M  V30 671 H 59.8561 -6.10504 -0.108125 0
M  V30 672 H 61.2701 -5.35882 2.03724 0
M  V30 673 H 59.6671 -5.29406 2.82577 0
M  V30 674 H 60.7371 -3.88272 2.9047 0
M  V30 675 N 62.0802 -0.821533 -1.34494 0
M  V30 676 C 63.3292 -0.405355 -1.97585 0
M  V30 677 C 63.6422 1.03677 -1.65863 0
M  V30 678 O 64.8482 1.55679 -2.22433 0
M  V30 679 C 63.3042 -0.673861 -3.53535 0
M  V30 680 C 62.9122 -2.12951 -3.94152 0
M  V30 681 C 64.6562 -0.32378 -4.23263 0
M  V30 682 C 62.5632 -2.34298 -5.43009 0
M  V30 683 H 61.4932 -0.147836 -0.739365 0
M  V30 684 H 64.1442 -1.00769 -1.53355 0
M  V30 685 H 62.5262 -0.00137554 -3.96 0
M  V30 686 H 63.7002 -2.84104 -3.62797 0
M  V30 687 H 62.0152 -2.44089 -3.37356 0
M  V30 688 H 64.6122 -0.461126 -5.32708 0
M  V30 689 H 64.9552 0.731586 -4.09821 0
M  V30 690 H 65.4882 -0.950786 -3.8627 0
M  V30 691 H 62.2272 -3.38335 -5.61435 0
M  V30 692 H 61.7472 -1.67687 -5.75883 0
M  V30 693 H 63.4262 -2.16588 -6.09671 0
M  V30 694 N 63.5583 1.46682 -0.576371 0
M  V30 695 C 64.8043 2.02712 -0.0596221 0
M  V30 696 C 65.1373 1.44765 1.29448 0
M  V30 697 O 64.4123 0.610355 1.84675 0
M  V30 698 C 64.6953 3.60098 0.0129503 0
M  V30 699 C 64.5483 4.28441 -1.3696 0
M  V30 700 C 65.8673 4.34224 0.71678 0
M  V30 701 H 62.9863 0.736637 -0.0231407 0
M  V30 702 H 65.6283 1.74898 -0.742351 0
M  V30 703 H 63.7783 3.83926 0.594378 0
M  V30 704 H 65.4503 4.15896 -1.9957 0
M  V30 705 H 63.6933 3.8805 -1.93907 0
M  V30 706 H 64.3643 5.3716 -1.27135 0
M  V30 707 H 66.8403 4.15503 0.222908 0
M  V30 708 H 65.7163 5.43936 0.73657 0
M  V30 709 H 65.9773 4.04823 1.77682 0
M  V30 710 N 65.0364 0.313813 1.54444 0
M  V30 711 C 66.2854 -0.292519 1.99568 0
M  V30 712 C 66.5984 -1.54011 1.20582 0
M  V30 713 O 67.8044 -2.22183 1.56035 0
M  V30 714 C 66.2604 -0.571752 3.55329 0
M  V30 715 C 65.8684 0.658229 4.43138 0
M  V30 716 C 67.6124 -1.13857 4.08946 0
M  V30 717 C 65.5194 0.351439 5.90355 0
M  V30 718 H 64.4494 -0.113079 0.745472 0
M  V30 719 H 67.1004 0.424518 1.78522 0
M  V30 720 H 65.4824 -1.34872 3.72325 0
M  V30 721 H 66.6564 1.43403 4.37918 0
M  V30 722 H 64.9714 1.14458 4.0036 0
M  V30 723 H 67.5684 -1.38257 5.16516 0
M  V30 724 H 67.9114 -2.08489 3.6033 0
M  V30 725 H 68.4444 -0.423015 3.95544 0
M  V30 726 H 65.1834 1.26667 6.43145 0
M  V30 727 H 64.7034 -0.386842 5.98551 0
M  V30 728 H 66.3824 -0.0423134 6.46986 0
M  V30 729 N 66.5145 -1.57545 0.0417849 0
M  V30 730 C 67.7605 -1.92601 -0.635021 0
M  V30 731 C 68.0935 -0.919627 -1.71045 0
M  V30 732 O 67.3685 0.0557892 -1.9442 0
M  V30 733 C 67.6515 -3.38085 -1.23979 0
M  V30 734 C 67.5045 -4.49467 -0.173057 0
M  V30 735 C 68.8235 -3.83776 -2.15416 0
M  V30 736 H 65.9425 -0.700397 -0.229374 0
M  V30 737 H 68.5845 -1.89728 0.101633 0
M  V30 738 H 66.7345 -3.40664 -1.86762 0
M  V30 739 H 68.4065 -4.59018 0.458312 0
M  V30 740 H 66.6495 -4.30909 0.499996 0
M  V30 741 H 67.3205 -5.48323 -0.636054 0
M  V30 742 H 69.7965 -3.83013 -1.62605 0
M  V30 743 H 68.6725 -4.8624 -2.54679 0
M  V30 744 H 68.9335 -3.19998 -3.05047 0
M  V30 745 N 67.9926 0.231505 -1.5589 0
M  V30 746 C 69.2176 0.978689 -1.82856 0
M  V30 747 C 69.6426 1.77559 -0.620846 0
M  V30 748 O 69.0006 1.76119 0.430305 0
M  V30 749 C 69.0486 1.87997 -3.07716 0
M  V30 750 O 68.1526 2.97393 -2.85712 0
M  V30 751 H 67.4936 0.277663 -0.603158 0
M  V30 752 H 70.0236 0.24783 -2.03093 0
M  V30 753 H 70.0336 2.2917 -3.37558 0
M  V30 754 H 68.7086 1.29417 -3.95252 0
M  V30 755 H 67.2856 2.60238 -2.67078 0
M  V30 756 N 69.4707 1.49531 0.497807 0
M  V30 757 C 70.7197 1.58426 1.24837 0
M  V30 758 C 71.0327 0.277643 1.93619 0
M  V30 759 O 72.2387 0.24517 2.70391 0
M  V30 760 C 70.6947 2.79538 2.26686 0
M  V30 761 C 70.3027 4.16971 1.63828 0
M  V30 762 C 72.0467 2.97764 3.0255 0
M  V30 763 C 69.9537 5.29301 2.63807 0
M  V30 764 H 68.8837 0.58989 0.469623 0
M  V30 765 H 71.5347 1.75923 0.521857 0
M  V30 766 H 69.9167 2.55542 3.02514 0
M  V30 767 H 71.0907 4.51116 0.939711 0
M  V30 768 H 69.4057 4.04129 1.00342 0
M  V30 769 H 72.0027 3.78856 3.77323 0
M  V30 770 H 72.3457 2.08448 3.60354 0
M  V30 771 H 72.8787 3.21815 2.33838 0
M  V30 772 H 69.6177 6.20687 2.10779 0
M  V30 773 H 69.1377 4.99606 3.31894 0
M  V30 774 H 70.8167 5.58768 3.2617 0
M  V30 775 N 70.9488 -0.749086 1.3866 0
M  V30 776 C 72.1738 -1.54344 1.38538 0
M  V30 777 C 72.5988 -1.88088 -0.0216655 0
M  V30 778 O 71.9568 -1.50899 -1.00494 0
M  V30 779 C 72.0048 -2.8164 2.25192 0
M  V30 780 O 71.1088 -3.7698 1.67212 0
M  V30 781 H 70.4498 -0.466654 0.472367 0
M  V30 782 H 72.9798 -0.925355 1.82478 0
M  V30 783 H 72.9898 -3.30519 2.3921 0
M  V30 784 H 71.6648 -2.56411 3.27454 0
M  V30 785 H 70.2418 -3.35699 1.6236 0
M  V30 786 N 72.4269 -1.23603 -0.977757 0
M  V30 787 C 73.3769 -0.986664 -2.05545 0
M  V30 788 C 74.3609 0.0683009 -1.60755 0
M  V30 789 O 75.5529 -0.144162 -1.76412 0
M  V30 790 C 72.6819 -0.582623 -3.3832 0
M  V30 791 C 71.7679 -1.67313 -3.89701 0
M  V30 792 N 72.1589 -2.90394 -4.14132 0
M  V30 793 C 70.4569 -1.54832 -4.18262 0
M  V30 794 C 71.1579 -3.61017 -4.56116 0
M  V30 795 N 70.1339 -2.8854 -4.60701 0
M  V30 796 H 73.9359 -1.92139 -2.22396 0
M  V30 797 H 71.4499 -1.1358 -1.16074 0
M  V30 798 H 73.4469 -0.38524 -4.15116 0
M  V30 799 H 72.1069 0.34503 -3.22862 0
M  V30 800 H 73.1179 -3.26673 -4.01877 0
M  V30 801 H 69.7949 -0.687969 -4.11793 0
M  V30 802 H 71.1849 -4.66544 -4.83514 0
M  V30 803 N 73.905 1.17692 -1.04816 0
M  V30 804 C 75.152 1.87859 -0.75599 0
M  V30 805 C 75.48 1.80812 0.716752 0
M  V30 806 O 74.735 1.20819 1.53952 0
M  V30 807 C 75.034 3.37462 -1.17703 0
M  V30 808 C 74.7 3.64713 -2.65133 0
M  V30 809 C 73.362 3.71859 -3.05408 0
M  V30 810 C 75.714 3.76492 -3.60421 0
M  V30 811 C 73.042 3.88271 -4.39843 0
M  V30 812 C 75.394 3.94421 -4.94585 0
M  V30 813 C 74.058 3.99806 -5.3452 0
M  V30 814 H 73.328 0.687425 -0.276636 0
M  V30 815 H 75.975 1.39255 -1.31455 0
M  V30 816 H 74.28 3.88097 -0.537395 0
M  V30 817 H 75.977 3.90109 -0.928218 0
M  V30 818 H 72.567 3.59772 -2.32942 0
M  V30 819 H 76.751 3.70295 -3.30447 0
M  V30 820 H 72.007 3.90687 -4.70291 0
M  V30 821 H 76.181 4.02477 -5.68318 0
M  V30 822 H 73.808 4.12276 -6.38696 0
M  V30 823 N 75.3831 0.828654 1.34056 0
M  V30 824 C 76.3301 0.252567 2.29414 0
M  V30 825 C 77.3001 -0.62588 1.53857 0
M  V30 826 O 78.4851 -0.566312 1.82202 0
M  V30 827 C 75.6251 -0.574831 3.40279 0
M  V30 828 C 74.7381 0.326499 4.30764 0
M  V30 829 C 73.8731 -0.511016 5.28736 0
M  V30 830 C 72.9121 0.389342 6.1086 0
M  V30 831 N 72.0491 -0.409439 7.00905 0
M  V30 832 H 76.8891 1.07108 2.78086 0
M  V30 833 H 74.4261 0.539677 1.36843 0
M  V30 834 H 76.3841 -1.06992 4.03248 0
M  V30 835 H 75.0141 -1.35841 2.92826 0
M  V30 836 H 74.0661 0.939837 3.68607 0
M  V30 837 H 75.3781 1.01857 4.88289 0
M  V30 838 H 74.5321 -1.07035 5.97184 0
M  V30 839 H 73.2711 -1.23657 4.71763 0
M  V30 840 H 72.2761 0.960769 5.4134 0
M  V30 841 H 73.5011 1.1131 6.69916 0
M  V30 842 H 71.4471 -1.11856 6.46393 0
M  V30 843 H 71.3641 0.224126 7.55668 0
M  V30 844 H 72.6321 -0.951336 7.73673 0
M  V30 845 N 76.8612 -1.46375 0.584142 0
M  V30 846 C 77.7932 -2.28443 -0.186119 0
M  V30 847 C 78.8062 -1.38596 -0.854115 0
M  V30 848 O 79.9952 -1.63183 -0.723438 0
M  V30 849 C 77.0952 -3.13671 -1.28311 0
M  V30 850 C 76.2682 -4.31652 -0.706758 0
M  V30 851 C 75.3272 -4.98267 -1.69163 0
M  V30 852 O 74.3532 -5.55815 -1.22712 0
M  V30 853 N 75.5552 -4.95408 -3.02575 0
M  V30 854 H 78.3202 -2.9519 0.517986 0
M  V30 855 H 75.8812 -1.56303 0.42201 0
M  V30 856 H 77.8732 -3.55101 -1.94128 0
M  V30 857 H 76.4432 -2.48989 -1.89005 0
M  V30 858 H 75.6632 -3.93989 0.128908 0
M  V30 859 H 76.9512 -5.07906 -0.301506 0
M  V30 860 H 76.3492 -4.49902 -3.42936 0
M  V30 861 H 74.9062 -5.40774 -3.63877 0
M  V30 862 N 78.3393 -0.321999 -1.54275 0
M  V30 863 C 79.2693 0.537411 -2.27231 0
M  V30 864 C 80.2503 1.12064 -1.27968 0
M  V30 865 O 81.4353 1.14606 -1.56777 0
M  V30 866 C 78.5653 1.69919 -3.02894 0
M  V30 867 C 77.5193 1.24534 -4.09482 0
M  V30 868 C 76.8453 2.49394 -4.72977 0
M  V30 869 C 78.1453 0.361335 -5.21049 0
M  V30 870 H 79.8393 -0.0711406 -2.99315 0
M  V30 871 H 77.3853 -0.0356555 -1.43956 0
M  V30 872 H 79.3383 2.30668 -3.52662 0
M  V30 873 H 78.0623 2.33431 -2.28424 0
M  V30 874 H 76.7213 0.660782 -3.60596 0
M  V30 875 H 76.3693 3.11265 -3.95124 0
M  V30 876 H 76.0693 2.19718 -5.44975 0
M  V30 877 H 77.5933 3.10908 -5.25517 0
M  V30 878 H 79.0073 0.875072 -5.66582 0
M  V30 879 H 77.4043 0.157428 -5.99893 0
M  V30 880 H 78.4743 -0.60822 -4.8107 0
M  V30 881 N 79.8174 1.5752 -0.0501392 0
M  V30 882 C 80.7674 2.07981 0.934231 0
M  V30 883 C 81.7514 0.984745 1.27246 0
M  V30 884 O 82.9434 1.24809 1.25506 0
M  V30 885 C 80.0724 2.62751 2.20945 0
M  V30 886 C 79.1584 3.79225 1.89865 0
M  V30 887 N 79.5494 4.89036 1.29142 0
M  V30 888 C 77.8474 3.88111 2.19741 0
M  V30 889 C 78.5484 5.70084 1.15669 0
M  V30 890 N 77.5244 5.17659 1.65923 0
M  V30 891 H 81.3264 2.90277 0.460053 0
M  V30 892 H 78.8404 1.61665 0.15434 0
M  V30 893 H 80.8374 2.97205 2.9236 0
M  V30 894 H 79.4974 1.81894 2.6897 0
M  V30 895 H 80.5084 5.08854 0.963756 0
M  V30 896 H 77.1854 3.18194 2.70293 0
M  V30 897 H 78.5754 6.68395 0.685356 0
M  V30 898 N 81.2955 -0.223234 1.56011 0
M  V30 899 C 82.5235 -0.964812 1.83027 0
M  V30 900 C 82.9385 -1.78013 0.62904 0
M  V30 901 O 82.2955 -1.78008 -0.402414 0
M  V30 902 C 82.3465 -1.88373 3.08542 0
M  V30 903 O 82.0675 -1.10137 4.2403 0
M  V30 904 C 83.5685 -2.73934 3.48533 0
M  V30 905 H 80.7885 -0.282842 0.608475 0
M  V30 906 H 83.3325 -0.238971 2.03099 0
M  V30 907 H 81.4875 -2.56354 2.9045 0
M  V30 908 H 81.9015 -1.72501 4.95322 0
M  V30 909 H 83.3755 -3.34117 4.39397 0
M  V30 910 H 83.8525 -3.46244 2.70207 0
M  V30 911 H 84.4585 -2.11369 3.69057 0
M  V30 912 N 82.7736 -1.49793 -0.48987 0
M  V30 913 C 84.1846 -1.52914 -1.07118 0
M  V30 914 C 84.5356 -0.321738 -1.93544 0
M  V30 915 O 83.6606 0.567338 -2.08831 0
M  V30 916 C 84.2556 -2.771 -1.94938 0
M  V30 917 C 82.8146 -2.82963 -2.48212 0
M  V30 918 C 81.9616 -2.46972 -1.26096 0
M  V30 919 H 84.9126 -1.56329 -0.273289 0
M  V30 920 H 84.9336 -2.57892 -2.79771 0
M  V30 921 H 84.4456 -3.64959 -1.32009 0
M  V30 922 H 82.5466 -1.99411 -3.14748 0
M  V30 923 H 82.6596 -3.85406 -2.84603 0
M  V30 924 H 81.0236 -1.98994 -1.58976 0
M  V30 925 H 81.8066 -3.37118 -0.648581 0
M  V30 926 N 84.2517 0.741722 -1.39055 0
M  V30 927 C 85.4797 1.53098 -1.39171 0
M  V30 928 C 85.8947 1.88794 0.0155099 0
M  V30 929 O 85.2517 1.53626 0.985159 0
M  V30 930 C 85.3027 2.82274 -2.2584 0
M  V30 931 O 85.0237 2.48097 -3.61081 0
M  V30 932 C 86.5247 3.76343 -2.34266 0
M  V30 933 H 83.7447 0.473335 -0.4756 0
M  V30 934 H 86.2887 0.917045 -1.82785 0
M  V30 935 H 84.4437 3.40015 -1.85656 0
M  V30 936 H 84.8577 3.31029 -4.06842 0
M  V30 937 H 86.3317 4.63898 -2.9917 0
M  V30 938 H 86.8087 4.17619 -1.35982 0
M  V30 939 H 87.4147 3.24523 -2.74891 0
M  V30 940 N 85.7298 1.2412 0.971189 0
M  V30 941 C 86.6778 1.02812 2.08644 0
M  V30 942 C 87.6718 -0.0358403 1.69362 0
M  V30 943 O 88.8778 0.118429 1.7961 0
M  V30 944 H 85.2528 0.315428 0.682649 0
M  V30 945 H 87.2238 1.97397 2.23779 0
M  V30 946 C 85.9728 0.645874 3.41649 0
M  V30 947 H 85.2958 1.45632 3.72332 0
M  V30 948 H 86.7358 0.536366 4.20594 0
M  V30 949 C 85.1948 -0.646713 3.30635 0
M  V30 950 O 85.7248 -1.69338 3.64263 0
M  V30 951 N 83.9308 -0.626115 2.83775 0
M  V30 952 H 83.4778 0.225988 2.56607 0
M  V30 953 H 83.4358 -1.49117 2.76788 0
M  V30 954 N 87.2079 -1.17134 1.05439 0
M  V30 955 C 88.4539 -1.87979 0.776872 0
M  V30 956 C 88.8089 -1.7965 -0.688751 0
M  V30 957 O 88.1019 -1.19535 -1.4974 0
M  V30 958 C 88.2959 -3.36833 1.19491 0
M  V30 959 C 88.1249 -3.59653 2.69963 0
M  V30 960 C 86.8949 -3.76234 3.37307 0
M  V30 961 C 89.0929 -3.59091 3.68182 0
M  V30 962 N 87.0749 -3.86922 4.76618 0
M  V30 963 C 88.4459 -3.75659 4.93235 0
M  V30 964 C 90.5009 -3.42255 3.61616 0
M  V30 965 C 89.2039 -3.77133 6.12506 0
M  V30 966 C 91.2299 -3.45018 4.8033 0
M  V30 967 C 90.5919 -3.62096 6.04207 0
M  V30 968 H 86.6909 -0.705876 0.336546 0
M  V30 969 H 89.2749 -1.40602 1.34682 0
M  V30 970 H 87.4459 -3.82873 0.652884 0
M  V30 971 H 89.1779 -3.95305 0.866966 0
M  V30 972 H 85.9329 -3.76193 2.87708 0
M  V30 973 H 86.3569 -3.96055 5.49062 0
M  V30 974 H 90.9989 -3.27986 2.66805 0
M  V30 975 H 88.7169 -3.90186 7.07659 0
M  V30 976 H 92.3029 -3.33246 4.76905 0
M  V30 977 H 91.1829 -3.64142 6.94529 0
M  V30 978 N 88.686 -0.835752 -1.33615 0
M  V30 979 C 89.616 -0.281739 -2.31794 0
M  V30 980 C 90.597 0.608833 -1.58831 0
M  V30 981 O 91.782 0.533035 -1.86741 0
M  V30 982 C 88.912 0.546612 -3.42971 0
M  V30 983 C 87.866 -0.247904 -4.27281 0
M  V30 984 C 87.192 0.704001 -5.30045 0
M  V30 985 C 88.492 -1.46324 -5.01385 0
M  V30 986 H 90.186 -1.10206 -2.78379 0
M  V30 987 H 87.732 -0.531388 -1.33837 0
M  V30 988 H 89.685 0.944467 -4.1068 0
M  V30 989 H 88.409 1.40011 -2.95067 0
M  V30 990 H 87.068 -0.627281 -3.61194 0
M  V30 991 H 86.716 1.55381 -4.78399 0
M  V30 992 H 86.416 0.176524 -5.87335 0
M  V30 993 H 87.94 1.09944 -6.0062 0
M  V30 994 H 89.354 -1.13871 -5.61877 0
M  V30 995 H 87.751 -1.92728 -5.6831 0
M  V30 996 H 88.821 -2.23467 -4.30338 0
M  V30 997 N 90.1641 1.46063 -0.591896 0
M  V30 998 C 91.4131 2.01547 -0.0786637 0
M  V30 999 C 91.7261 1.46796 1.29268 0
M  V30 1000 O 92.9321 1.94157 1.89777 0
M  V30 1001 C 91.3881 3.59787 -0.0900024 0
M  V30 1002 C 90.9961 4.23534 -1.46023 0
M  V30 1003 C 92.7401 4.22895 0.368806 0
M  V30 1004 C 90.6471 5.73881 -1.4288 0
M  V30 1005 H 89.5771 0.753564 -0.0256388 0
M  V30 1006 H 92.2281 1.677 -0.744905 0
M  V30 1007 H 90.6101 3.90752 0.642586 0
M  V30 1008 H 91.7841 4.04167 -2.21328 0
M  V30 1009 H 90.0991 3.72558 -1.85982 0
M  V30 1010 H 92.6961 5.33116 0.411258 0
M  V30 1011 H 93.0391 3.9247 1.38827 0
M  V30 1012 H 93.5721 3.9659 -0.31001 0
M  V30 1013 H 90.3111 6.0898 -2.42536 0
M  V30 1014 H 89.8311 5.95486 -0.718095 0
M  V30 1015 H 91.5101 6.36776 -1.14565 0
M  V30 1016 N 91.6422 0.330177 1.54103 0
M  V30 1017 C 92.5922 -0.548456 2.21305 0
M  V30 1018 C 93.5762 -1.07651 1.19583 0
M  V30 1019 O 94.7682 -1.01243 1.45186 0
M  V30 1020 C 91.8972 -1.70559 2.97934 0
M  V30 1021 C 90.9832 -1.19212 4.07 0
M  V30 1022 N 91.3742 -0.398831 5.04225 0
M  V30 1023 C 89.6722 -1.47024 4.2107 0
M  V30 1024 C 90.3732 -0.121761 5.81573 0
M  V30 1025 N 89.3492 -0.709722 5.38947 0
M  V30 1026 H 93.1512 0.0648483 2.93828 0
M  V30 1027 H 90.6652 0.136363 1.61826 0
M  V30 1028 H 92.6622 -2.34688 3.44568 0
M  V30 1029 H 91.3222 -2.32231 2.26934 0
M  V30 1030 H 92.3332 -0.0410869 5.17884 0
M  V30 1031 H 89.0102 -2.09232 3.61287 0
M  V30 1032 H 90.4002 0.517298 6.69906 0
M  V30 1033 N 93.1203 -1.57491 0.0584922 0
M  V30 1034 C 94.3453 -1.97711 -0.62652 0
M  V30 1035 C 94.7703 -0.936132 -1.63151 0
M  V30 1036 O 94.1283 0.099811 -1.81025 0
M  V30 1037 C 94.1763 -3.36989 -1.28338 0
M  V30 1038 O 93.2803 -3.35433 -2.39913 0
M  V30 1039 H 92.6213 -0.643868 -0.162266 0
M  V30 1040 H 95.1513 -2.04193 0.129064 0
M  V30 1041 H 95.1613 -3.73879 -1.63335 0
M  V30 1042 H 93.8363 -4.12289 -0.546889 0
M  V30 1043 H 92.4133 -3.10298 -2.06809 0
M  V30 1044 N 94.5984 0.214957 -1.56127 0
M  V30 1045 C 95.5314 1.29382 -1.87977 0
M  V30 1046 C 96.5094 1.44897 -0.737807 0
M  V30 1047 O 97.6934 1.60605 -0.986833 0
M  V30 1048 C 94.8204 2.66325 -2.09258 0
M  V30 1049 C 93.8664 2.67789 -3.31951 0
M  V30 1050 S 94.6994 2.21198 -4.8768 0
M  V30 1051 C 95.8554 3.60003 -5.12004 0
M  V30 1052 H 96.0884 1.02173 -2.79192 0
M  V30 1053 H 93.6214 0.417516 -1.48648 0
M  V30 1054 H 95.5794 3.45162 -2.22201 0
M  V30 1055 H 94.2404 2.90755 -1.18829 0
M  V30 1056 H 93.4334 3.68436 -3.43906 0
M  V30 1057 H 93.0354 1.9702 -3.17898 0
M  V30 1058 H 95.3274 4.55739 -5.01307 0
M  V30 1059 H 96.2704 3.52959 -6.13861 0
M  V30 1060 H 96.6784 3.53996 -4.39712 0
M  V30 1061 N 96.0765 1.50051 0.48192 0
M  V30 1062 C 97.0395 1.67584 1.5636 0
M  V30 1063 C 98.0395 0.546894 1.51214 0
M  V30 1064 O 99.2295 0.813725 1.54026 0
M  V30 1065 C 96.3615 1.691 2.96003 0
M  V30 1066 H 97.5545 2.64078 1.42136 0
M  V30 1067 H 95.1075 1.39369 0.707533 0
M  V30 1068 H 95.8425 0.742589 3.15684 0
M  V30 1069 H 95.6275 2.51105 3.01146 0
M  V30 1070 H 97.1175 1.84656 3.74556 0
M  V30 1071 N 97.5546 -0.734337 1.39446 0
M  V30 1072 C 98.7826 -1.52358 1.39981 0
M  V30 1073 C 99.1976 -1.88799 -0.0054975 0
M  V30 1074 O 98.5546 -1.54146 -0.976998 0
M  V30 1075 C 98.6056 -2.81072 2.27333 0
M  V30 1076 O 98.3266 -2.46178 3.62392 0
M  V30 1077 C 99.8276 -3.75096 2.36259 0
M  V30 1078 H 97.0476 -0.470806 0.478103 0
M  V30 1079 H 99.5916 -0.907339 1.83269 0
M  V30 1080 H 97.7466 -3.39026 1.87457 0
M  V30 1081 H 98.1606 -3.28866 4.08592 0
M  V30 1082 H 99.6346 -4.62305 3.01626 0
M  V30 1083 H 100.112 -4.16892 1.38194 0
M  V30 1084 H 100.718 -3.23061 2.76608 0
M  V30 1085 N 99.0327 -1.24633 -0.964593 0
M  V30 1086 C 100.279 -1.08949 -1.71049 0
M  V30 1087 C 100.612 0.370302 -1.90637 0
M  V30 1088 O 99.8867 1.27349 -1.47011 0
M  V30 1089 C 100.17 -1.83329 -3.0994 0
M  V30 1090 C 100.023 -3.37077 -2.97824 0
M  V30 1091 C 101.342 -1.60846 -4.09654 0
M  V30 1092 H 98.4607 -0.397178 -0.620821 0
M  V30 1093 H 101.103 -1.5334 -1.12191 0
M  V30 1094 H 99.2527 -1.45597 -3.60186 0
M  V30 1095 H 100.925 -3.84425 -2.5498 0
M  V30 1096 H 99.1677 -3.65298 -2.33965 0
M  V30 1097 H 99.8387 -3.84324 -3.96231 0
M  V30 1098 H 102.315 -1.93674 -3.68279 0
M  V30 1099 H 101.191 -2.1534 -5.04896 0
M  V30 1100 H 101.452 -0.547434 -4.38698 0
M  V30 1101 N 100.511 1.16574 -1.06058 0
M  V30 1102 C 101.788 1.83048 -0.689416 0
M  V30 1103 C 102.168 1.94122 0.829443 0
M  V30 1104 O 101.516 1.48249 1.7388 0
M  V30 1105 C 101.726 3.20186 -1.38859 0
M  V30 1106 C 103.074 3.95989 -1.53226 0
M  V30 1107 O 104.098 3.29696 -1.3483 0
M  V30 1108 O 102.957 5.14813 -1.83384 0
M  V30 1109 H 100.051 0.790258 -0.243764 0
M  V30 1110 H 102.597 1.23797 -1.16071 0
M  V30 1111 H 101.369 3.07146 -2.4244 0
M  V30 1112 H 100.992 3.87112 -0.907216 0
M  V30 1113 N 101.989 0.842826 1.3317 0
M  V30 1114 C 103.236 0.440447 1.97652 0
M  V30 1115 C 103.564 -1.00123 1.6675 0
M  V30 1116 O 102.819 -1.7155 0.941761 0
M  V30 1117 C 103.118 0.612607 3.52111 0
M  V30 1118 C 102.784 2.02297 4.02972 0
M  V30 1119 C 101.446 2.40874 4.16573 0
M  V30 1120 C 103.798 2.94402 4.30089 0
M  V30 1121 C 101.126 3.70852 4.54627 0
M  V30 1122 C 103.478 4.23865 4.69597 0
M  V30 1123 C 102.142 4.62392 4.81404 0
M  V30 1124 H 101.412 0.161171 0.72326 0
M  V30 1125 H 104.059 1.07061 1.58777 0
M  V30 1126 H 102.364 -0.100849 3.9167 0
M  V30 1127 H 104.061 0.2815 4.00011 0
M  V30 1128 H 100.651 1.71338 3.92863 0
M  V30 1129 H 104.835 2.65835 4.19101 0
M  V30 1130 H 100.091 4.00501 4.61962 0
M  V30 1131 H 104.265 4.95306 4.89536 0
M  V30 1132 H 101.892 5.63154 5.10648 0
M  V30 1133 N 103.467 -1.45747 0.599634 0
M  V30 1134 C 104.397 -2.33235 -0.111306 0
M  V30 1135 C 105.378 -1.46359 -0.866781 0
M  V30 1136 O 106.563 -1.75146 -0.838904 0
M  V30 1137 C 103.693 -3.28932 -1.11451 0
M  V30 1138 C 102.647 -4.25381 -0.472772 0
M  V30 1139 C 101.973 -5.1071 -1.58365 0
M  V30 1140 C 103.273 -5.18831 0.600948 0
M  V30 1141 H 104.967 -2.92927 0.61919 0
M  V30 1142 H 102.513 -1.40857 0.299215 0
M  V30 1143 H 104.466 -3.89002 -1.62036 0
M  V30 1144 H 103.19 -2.67381 -1.8755 0
M  V30 1145 H 101.849 -3.66598 0.0121472 0
M  V30 1146 H 101.497 -4.45533 -2.33473 0
M  V30 1147 H 101.197 -5.7604 -1.15982 0
M  V30 1148 H 102.721 -5.73647 -2.09194 0
M  V30 1149 H 104.135 -5.73019 0.179491 0
M  V30 1150 H 102.532 -5.92595 0.946076 0
M  V30 1151 H 103.602 -4.6174 1.48068 0
M  V30 1152 N 104.945 -0.338344 -1.53925 0
M  V30 1153 C 105.875 0.51328 -2.27789 0
M  V30 1154 C 106.856 1.107 -1.29149 0
M  V30 1155 O 108.041 1.12937 -1.57984 0
M  V30 1156 C 105.171 1.66697 -3.04679 0
M  V30 1157 C 104.125 1.20183 -4.1078 0
M  V30 1158 C 103.451 2.44363 -4.75595 0
M  V30 1159 C 104.751 0.30605 -5.21403 0
M  V30 1160 H 106.445 -0.102883 -2.99223 0
M  V30 1161 H 103.991 -0.0509219 -1.4391 0
M  V30 1162 H 105.944 2.26915 -3.55088 0
M  V30 1163 H 104.668 2.30995 -2.30887 0
M  V30 1164 H 103.327 0.622499 -3.61276 0
M  V30 1165 H 102.975 3.07057 -3.98403 0
M  V30 1166 H 102.675 2.13925 -5.47275 0
M  V30 1167 H 104.199 3.05317 -5.28786 0
M  V30 1168 H 105.613 0.814929 -5.67478 0
M  V30 1169 H 104.01 0.0937929 -6.00027 0
M  V30 1170 H 105.08 -0.65921 -4.80398 0
M  V30 1171 N 106.423 1.57458 -0.0668435 0
M  V30 1172 C 107.671 1.92919 0.602214 0
M  V30 1173 C 107.992 0.947215 1.70449 0
M  V30 1174 O 107.262 -0.00544117 1.95899 0
M  V30 1175 H 105.842 0.71217 0.22544 0
M  V30 1176 H 108.504 1.94508 -0.123535 0
M  V30 1177 H 107.6 2.94589 1.03073 0
M  V30 1178 N 107.901 -0.206675 1.56239 0
M  V30 1179 C 109.141 -0.93574 1.81723 0
M  V30 1180 C 109.505 -1.80927 0.642609 0
M  V30 1181 O 110.706 -2.57323 0.777081 0
M  V30 1182 C 108.977 -1.74012 3.12177 0
M  V30 1183 S 110.536 -2.52279 3.59028 0
M  V30 1184 H 107.354 -0.314065 0.637875 0
M  V30 1185 H 109.956 -0.200071 1.94474 0
M  V30 1186 H 108.66 -1.0888 3.95693 0
M  V30 1187 H 108.191 -2.51782 3.02274 0
M  V30 1188 H 110.206 -3.76209 3.23545 0
M  V30 1189 N 109.379 -1.50304 -0.473955 0
M  V30 1190 C 110.309 -1.71886 -1.58042 0
M  V30 1191 C 111.29 -0.567799 -1.60344 0
M  V30 1192 O 112.475 -0.806623 -1.76656 0
M  V30 1193 C 109.605 -1.81036 -2.96384 0
M  V30 1194 C 108.559 -2.962 -3.08949 0
M  V30 1195 C 107.885 -2.9049 -4.48909 0
M  V30 1196 C 109.185 -4.36752 -2.86434 0
M  V30 1197 H 110.879 -2.64527 -1.40234 0
M  V30 1198 H 108.425 -1.27295 -0.673201 0
M  V30 1199 H 110.378 -1.94719 -3.73714 0
M  V30 1200 H 109.102 -0.850147 -3.15341 0
M  V30 1201 H 107.761 -2.82164 -2.3405 0
M  V30 1202 H 107.409 -1.92321 -4.64781 0
M  V30 1203 H 107.109 -3.67802 -4.58253 0
M  V30 1204 H 108.633 -3.06218 -5.28264 0
M  V30 1205 H 110.047 -4.5133 -3.53517 0
M  V30 1206 H 108.444 -5.15493 -3.07225 0
M  V30 1207 H 109.514 -4.49321 -1.82316 0
M  V30 1208 N 110.857 0.726932 -1.39834 0
M  V30 1209 C 112.103 1.48884 -1.377 0
M  V30 1210 C 112.436 1.94185 0.0244852 0
M  V30 1211 O 111.711 1.67361 0.990986 0
M  V30 1212 C 111.994 2.72288 -2.3565 0
M  V30 1213 C 111.847 2.32956 -3.84775 0
M  V30 1214 C 113.166 3.74414 -2.31306 0
M  V30 1215 H 110.285 0.540062 -0.5015 0
M  V30 1216 H 112.927 0.830547 -1.70886 0
M  V30 1217 H 111.077 3.28457 -2.07481 0
M  V30 1218 H 112.749 1.82356 -4.23726 0
M  V30 1219 H 110.992 1.65088 -4.01159 0
M  V30 1220 H 111.663 3.21362 -4.4881 0
M  V30 1221 H 114.139 3.27849 -2.56231 0
M  V30 1222 H 113.015 4.58414 -3.01907 0
M  V30 1223 H 113.276 4.21909 -1.32081 0
M  V30 1224 N 112.336 1.25143 0.95797 0
M  V30 1225 C 113.269 0.995565 2.05338 0
M  V30 1226 C 114.247 -0.0740423 1.62431 0
M  V30 1227 O 115.431 0.0649212 1.88388 0
M  V30 1228 C 112.558 0.504298 3.34925 0
M  V30 1229 C 111.604 1.56393 3.96792 0
M  V30 1230 S 112.437 3.14815 4.33188 0
M  V30 1231 C 113.593 2.67415 5.65898 0
M  V30 1232 H 113.826 1.92309 2.26726 0
M  V30 1233 H 111.359 1.08635 1.09716 0
M  V30 1234 H 113.317 0.227497 4.09869 0
M  V30 1235 H 111.978 -0.402671 3.11508 0
M  V30 1236 H 111.171 1.17082 4.90212 0
M  V30 1237 H 110.773 1.79124 3.28315 0
M  V30 1238 H 113.065 2.10833 6.4386 0
M  V30 1239 H 114.008 3.59463 6.10076 0
M  V30 1240 H 114.416 2.07521 5.24972 0
M  V30 1241 N 113.814 -1.1601 1.06675 0
M  V30 1242 C 115.225 -1.68235 0.809565 0
M  V30 1243 C 115.576 -1.8454 -0.666303 0
M  V30 1244 O 114.701 -1.54374 -1.5165 0
M  V30 1245 C 115.296 -3.05585 1.46299 0
M  V30 1246 C 113.855 -3.54915 1.25349 0
M  V30 1247 C 113.002 -2.30804 1.53703 0
M  V30 1248 H 115.953 -1.00318 1.22971 0
M  V30 1249 H 115.974 -3.70174 0.880431 0
M  V30 1250 H 115.486 -2.93686 2.53713 0
M  V30 1251 H 113.587 -3.72067 0.199261 0
M  V30 1252 H 113.7 -4.36774 1.9689 0
M  V30 1253 H 112.064 -2.36007 0.957739 0
M  V30 1254 H 112.847 -2.21499 2.62284 0
M  V30 1255 N 115.292 -0.849877 -1.32721 0
M  V30 1256 C 116.522 -0.46408 -2.0132 0
M  V30 1257 C 116.93 0.94246 -1.64056 0
M  V30 1258 O 116.273 1.6257 -0.855379 0
M  V30 1259 C 116.335 -0.517887 -3.5575 0
M  V30 1260 C 115.999 -1.88248 -4.16427 0
M  V30 1261 C 116.996 -2.84726 -4.35002 0
M  V30 1262 C 114.681 -2.17832 -4.52609 0
M  V30 1263 C 116.675 -4.08945 -4.8892 0
M  V30 1264 C 114.362 -3.42304 -5.06232 0
M  V30 1265 C 115.36 -4.37677 -5.24335 0
M  V30 1266 O 115.048 -5.59946 -5.76815 0
M  V30 1267 H 114.78 -0.181327 -0.651227 0
M  V30 1268 H 117.334 -1.14713 -1.70382 0
M  V30 1269 H 115.564 0.221997 -3.86062 0
M  V30 1270 H 117.253 -0.148366 -4.05629 0
M  V30 1271 H 118.019 -2.63174 -4.07388 0
M  V30 1272 H 113.898 -1.44385 -4.37806 0
M  V30 1273 H 117.442 -4.83396 -5.02966 0
M  V30 1274 H 113.339 -3.63709 -5.33278 0
M  V30 1275 H 114.107 -5.61838 -5.95214 0
M  V30 1276 N 116.77 1.45427 -0.607355 0
M  V30 1277 C 117.995 2.07124 -0.107006 0
M  V30 1278 C 118.42 1.44906 1.19933 0
M  V30 1279 O 117.778 0.541687 1.73019 0
M  V30 1280 C 117.826 3.60595 0.0194119 0
M  V30 1281 O 116.93 3.98285 1.0697 0
M  V30 1282 H 116.271 0.659868 -0.0739597 0
M  V30 1283 H 118.801 1.86683 -0.837297 0
M  V30 1284 H 118.811 4.07419 0.2177 0
M  V30 1285 H 117.486 4.05266 -0.934453 0
M  V30 1286 H 116.063 3.63133 0.847889 0
M  V30 1287 N 118.248 0.346503 1.53744 0
M  V30 1288 C 119.181 -0.552023 2.21423 0
M  V30 1289 C 120.159 -1.09798 1.19929 0
M  V30 1290 O 121.343 -1.1577 1.4876 0
M  V30 1291 C 118.47 -1.75972 2.89398 0
M  V30 1292 C 117.516 -1.34295 4.04805 0
M  V30 1293 S 118.349 -0.360263 5.34287 0
M  V30 1294 C 119.505 -1.57473 6.05767 0
M  V30 1295 H 119.738 0.0228119 2.97291 0
M  V30 1296 H 117.271 0.130579 1.53847 0
M  V30 1297 H 119.229 -2.45256 3.2918 0
M  V30 1298 H 117.89 -2.30578 2.1329 0
M  V30 1299 H 117.083 -2.24349 4.51313 0
M  V30 1300 H 116.685 -0.729555 3.66815 0
M  V30 1301 H 118.977 -2.50875 6.29339 0
M  V30 1302 H 119.92 -1.15138 6.98676 0
M  V30 1303 H 120.328 -1.77212 5.35963 0
M  V30 1304 N 119.726 -1.57421 0.075193 0
M  V30 1305 C 120.972 -1.93905 -0.594025 0
M  V30 1306 C 121.305 -0.955701 -1.69056 0
M  V30 1307 O 120.58 0.0145373 -1.94495 0
M  V30 1308 C 120.863 -3.40638 -1.1678 0
M  V30 1309 C 120.716 -4.49733 -0.0776792 0
M  V30 1310 C 122.035 -3.88259 -2.07228 0
M  V30 1311 H 119.154 -0.705105 -0.214466 0
M  V30 1312 H 121.796 -1.8947 0.141854 0
M  V30 1313 H 119.946 -3.44549 -1.79494 0
M  V30 1314 H 121.618 -4.57942 0.555573 0
M  V30 1315 H 119.861 -4.29751 0.591286 0
M  V30 1316 H 120.532 -5.49549 -0.519603 0
M  V30 1317 H 123.008 -3.86376 -1.54445 0
M  V30 1318 H 121.884 -4.91533 -2.44308 0
M  V30 1319 H 122.145 -3.26396 -2.98191 0
M  V30 1320 N 121.204 0.198386 -1.56346 0
M  V30 1321 C 122.62 0.549085 -1.49857 0
M  V30 1322 C 122.82 1.86016 -0.774611 0
M  V30 1323 O 121.876 2.50416 -0.323776 0
M  V30 1324 C 123.189 0.606868 -2.94512 0
M  V30 1325 C 124.737 0.695925 -3.05165 0
M  V30 1326 C 125.212 0.784848 -4.51225 0
M  V30 1327 N 126.703 0.848463 -4.55363 0
M  V30 1328 C 127.438 0.937378 -5.65686 0
M  V30 1329 N 126.934 0.9888 -6.85707 0
M  V30 1330 N 128.727 0.974312 -5.53592 0
M  V30 1331 H 120.878 -0.661655 -2.01831 0
M  V30 1332 H 123.141 -0.235261 -0.918344 0
M  V30 1333 H 122.847 -0.28732 -3.50524 0
M  V30 1334 H 122.721 1.46268 -3.47686 0
M  V30 1335 H 125.108 1.58055 -2.49204 0
M  V30 1336 H 125.189 -0.186022 -2.55123 0
M  V30 1337 H 124.833 -0.0954072 -5.0781 0
M  V30 1338 H 124.763 1.68255 -4.98997 0
M  V30 1339 H 127.254 0.818103 -3.68938 0
M  V30 1340 H 127.567 1.05707 -7.65536 0
M  V30 1341 H 125.912 0.957534 -6.88372 0
M  V30 1342 H 129.103 0.930954 -4.58749 0
M  V30 1343 H 129.276 1.04015 -6.39597 0
M  V30 1344 N 122.682 1.50554 0.465978 0
M  V30 1345 C 123.907 1.65838 1.24549 0
M  V30 1346 C 124.332 0.343486 1.84937 0
M  V30 1347 O 123.69 -0.69324 1.67523 0
M  V30 1348 C 123.738 2.75533 2.32624 0
M  V30 1349 O 122.842 2.37142 3.37398 0
M  V30 1350 H 122.183 0.553893 0.366194 0
M  V30 1351 H 124.713 1.96959 0.553927 0
M  V30 1352 H 124.723 2.98763 2.77857 0
M  V30 1353 H 123.398 3.70962 1.88043 0
M  V30 1354 H 121.975 2.24377 2.97841 0
M  V30 1355 N 124.16 -0.719506 1.40217 0
M  V30 1356 C 125.123 -1.8153 1.39927 0
M  V30 1357 C 126.123 -1.58095 0.293723 0
M  V30 1358 O 127.313 -1.65209 0.552429 0
M  V30 1359 C 124.445 -3.19561 1.18716 0
M  V30 1360 H 125.638 -1.83186 2.37451 0
M  V30 1361 H 123.191 -0.924746 1.26008 0
M  V30 1362 H 123.926 -3.23557 0.219366 0
M  V30 1363 H 123.711 -3.3797 1.98793 0
M  V30 1364 H 125.201 -3.99598 1.21291 0
M  V30 1365 N 125.638 -1.25649 -0.95132 0
M  V30 1366 C 126.548 -1.08073 -2.08224 0
M  V30 1367 C 127.564 -0.0169666 -1.73992 0
M  V30 1368 O 128.74 -0.218593 -2.0021 0
M  V30 1369 C 125.805 -0.704922 -3.39458 0
M  V30 1370 C 124.866 -1.84699 -3.87537 0
M  V30 1371 C 124.099 -1.48902 -5.12508 0
M  V30 1372 O 124.322 -0.386156 -5.69091 0
M  V30 1373 O 123.256 -2.32033 -5.55378 0
M  V30 1374 H 127.082 -2.02924 -2.25954 0
M  V30 1375 H 124.667 -1.04618 -1.06656 0
M  V30 1376 H 126.549 -0.507609 -4.18332 0
M  V30 1377 H 125.224 0.214291 -3.2299 0
M  V30 1378 H 124.131 -2.09919 -3.09653 0
M  V30 1379 H 125.464 -2.74557 -4.08509 0
M  V30 1380 N 127.117 1.15442 -1.07289 0
M  V30 1381 C 128.067 2.18164 -0.662467 0
M  V30 1382 C 129.051 1.57845 0.312074 0
M  V30 1383 O 130.243 1.76552 0.125905 0
M  V30 1384 C 127.372 3.43246 -0.0611295 0
M  V30 1385 C 126.458 4.1062 -1.06077 0
M  V30 1386 N 126.849 4.53491 -2.24008 0
M  V30 1387 C 125.147 4.36949 -0.893964 0
M  V30 1388 C 125.848 5.05731 -2.87422 0
M  V30 1389 N 124.824 4.99236 -2.15091 0
M  V30 1390 H 128.626 2.49038 -1.56068 0
M  V30 1391 H 126.14 1.32003 -0.945988 0
M  V30 1392 H 128.137 4.16145 0.250792 0
M  V30 1393 H 126.797 3.13854 0.832207 0
M  V30 1394 H 127.808 4.46898 -2.6173 0
M  V30 1395 H 124.485 4.17466 -0.0534693 0
M  V30 1396 H 125.875 5.48865 -3.87553 0
M  V30 1397 N 128.595 0.856903 1.32268 0
M  V30 1398 C 129.835 0.467705 1.98977 0
M  V30 1399 C 130.199 -0.959231 1.66321 0
M  V30 1400 O 131.4 -1.4531 2.26138 0
M  V30 1401 C 129.671 0.70256 3.50427 0
M  V30 1402 S 131.23 0.411269 4.36868 0
M  V30 1403 H 128.048 0.175121 0.689096 0
M  V30 1404 H 130.65 1.1101 1.60925 0
M  V30 1405 H 129.354 1.74012 3.71683 0
M  V30 1406 H 128.885 0.0466707 3.93372 0
M  V30 1407 H 130.9 -0.761799 4.90317 0
M  V30 1408 N 130.073 -1.45103 0.615059 0
M  V30 1409 C 131.319 -2.03035 0.121804 0
M  V30 1410 C 131.674 -1.47393 -1.23665 0
M  V30 1411 O 130.967 -0.642061 -1.80522 0
M  V30 1412 C 131.161 -3.57386 0.0318797 0
M  V30 1413 C 130.99 -4.28 1.38007 0
M  V30 1414 C 129.76 -4.65624 1.9627 0
M  V30 1415 C 131.958 -4.5948 2.31047 0
M  V30 1416 N 129.94 -5.21132 3.24492 0
M  V30 1417 C 131.311 -5.159 3.43872 0
M  V30 1418 C 133.366 -4.41423 2.30326 0
M  V30 1419 C 132.069 -5.56165 4.5615 0
M  V30 1420 C 134.095 -4.82726 3.41658 0
M  V30 1421 C 133.457 -5.39245 4.53205 0
M  V30 1422 H 129.556 -0.77702 0.0881159 0
M  V30 1423 H 132.14 -1.76819 0.815044 0
M  V30 1424 H 130.311 -3.83247 -0.630599 0
M  V30 1425 H 132.043 -4.01976 -0.468721 0
M  V30 1426 H 128.798 -4.49421 1.49392 0
M  V30 1427 H 129.222 -5.53377 3.90004 0
M  V30 1428 H 133.864 -3.97033 1.45343 0
M  V30 1429 H 131.582 -5.99517 5.41854 0
M  V30 1430 H 135.168 -4.7048 3.42257 0
M  V30 1431 H 134.048 -5.70616 5.37929 0
M  V30 1432 N 131.551 -0.354651 -1.53558 0
M  V30 1433 C 132.781 0.239167 -2.05211 0
M  V30 1434 C 133.189 1.43879 -1.22863 0
M  V30 1435 O 132.532 1.81857 -0.259565 0
M  V30 1436 C 132.594 0.707251 -3.52474 0
M  V30 1437 C 132.258 -0.374212 -4.55465 0
M  V30 1438 C 133.255 -1.22054 -5.0537 0
M  V30 1439 C 130.94 -0.531323 -4.99482 0
M  V30 1440 C 132.934 -2.20942 -5.97882 0
M  V30 1441 C 130.621 -1.52358 -5.91802 0
M  V30 1442 C 131.619 -2.36108 -6.40892 0
M  V30 1443 O 131.307 -3.33643 -7.31394 0
M  V30 1444 H 131.039 0.0479716 -0.674296 0
M  V30 1445 H 133.593 -0.508121 -1.99016 0
M  V30 1446 H 131.823 1.50596 -3.56171 0
M  V30 1447 H 133.512 1.22285 -3.87042 0
M  V30 1448 H 134.278 -1.1103 -4.7212 0
M  V30 1449 H 130.157 0.110738 -4.60867 0
M  V30 1450 H 133.701 -2.86348 -6.36121 0
M  V30 1451 H 129.598 -1.63434 -6.24467 0
M  V30 1452 H 130.366 -3.29244 -7.4936 0
M  V30 1453 N 133.029 1.57378 -0.0835403 0
M  V30 1454 C 134.276 1.9393 0.58287 0
M  V30 1455 C 134.604 0.964455 1.68904 0
M  V30 1456 O 133.859 -0.0179474 1.95692 0
M  V30 1457 C 134.158 3.37063 1.1884 0
M  V30 1458 C 133.824 4.50424 0.207194 0
M  V30 1459 C 132.486 4.81159 -0.0627115 0
M  V30 1460 C 134.838 5.19136 -0.463426 0
M  V30 1461 C 132.166 5.77939 -1.01012 0
M  V30 1462 C 134.518 6.16931 -1.39924 0
M  V30 1463 C 133.182 6.46078 -1.67749 0
M  V30 1464 H 132.452 0.70964 0.213287 0
M  V30 1465 H 135.099 1.90856 -0.156916 0
M  V30 1466 H 133.404 3.3666 2.00418 0
M  V30 1467 H 135.101 3.6264 1.71153 0
M  V30 1468 H 131.691 4.2646 0.427747 0
M  V30 1469 H 135.875 4.95576 -0.268034 0
M  V30 1470 H 131.131 5.98842 -1.23283 0
M  V30 1471 H 135.305 6.69273 -1.92476 0
M  V30 1472 H 132.932 7.2088 -2.41321 0
M  V30 1473 N 134.507 -0.190092 1.56449 0
M  V30 1474 C 135.755 -0.907908 1.80559 0
M  V30 1475 C 136.076 -1.83583 0.657438 0
M  V30 1476 O 135.346 -1.93203 -0.323924 0
M  V30 1477 H 133.926 -0.338247 0.666032 0
M  V30 1478 H 136.588 -0.194403 1.93928 0
M  V30 1479 H 135.684 -1.49604 2.73907 0
M  V30 1480 N 135.985 -1.50799 -0.457987 0
M  V30 1481 C 136.895 -1.73426 -1.57989 0
M  V30 1482 C 137.911 -0.617745 -1.62665 0
M  V30 1483 O 139.087 -0.897614 -1.80291 0
M  V30 1484 C 136.152 -1.83557 -2.94122 0
M  V30 1485 C 135.213 -3.07345 -2.99729 0
M  V30 1486 C 134.446 -3.16983 -4.29368 0
M  V30 1487 O 134.669 -2.33077 -5.20607 0
M  V30 1488 O 133.603 -4.09812 -4.40837 0
M  V30 1489 H 137.429 -2.68555 -1.41817 0
M  V30 1490 H 135.014 -1.35052 -0.638859 0
M  V30 1491 H 136.896 -1.92326 -3.74952 0
M  V30 1492 H 135.571 -0.916137 -3.10465 0
M  V30 1493 H 134.478 -3.04068 -2.1793 0
M  V30 1494 H 135.811 -3.9891 -2.88326 0
M  V30 1495 N 137.463 0.71206 -1.40597 0
M  V30 1496 C 138.709 1.47416 -1.39271 0
M  V30 1497 C 139.042 1.942 0.00388791 0
M  V30 1498 O 138.317 1.68403 0.973179 0
M  V30 1499 C 138.6 2.69774 -2.38525 0
M  V30 1500 C 138.453 2.28861 -3.87224 0
M  V30 1501 C 139.772 3.71939 -2.35264 0
M  V30 1502 H 136.891 0.534713 -0.5072 0
M  V30 1503 H 139.533 0.812375 -1.71757 0
M  V30 1504 H 137.683 3.26238 -2.10953 0
M  V30 1505 H 139.355 1.77852 -4.25636 0
M  V30 1506 H 137.598 1.60824 -4.02887 0
M  V30 1507 H 138.269 3.16584 -4.52193 0
M  V30 1508 H 140.745 3.25113 -2.59694 0
M  V30 1509 H 139.621 4.55186 -3.06753 0
M  V30 1510 H 139.882 4.20484 -1.36549 0
M  V30 1511 N 138.941 1.26152 0.944643 0
M  V30 1512 C 140.188 1.11492 1.69044 0
M  V30 1513 C 140.516 -0.342366 1.91463 0
M  V30 1514 O 139.771 -1.26812 1.49054 0
M  V30 1515 C 140.07 1.82541 3.07268 0
M  V30 1516 C 139.736 3.32445 3.04616 0
M  V30 1517 C 138.398 3.73337 3.036 0
M  V30 1518 C 140.75 4.28171 2.97185 0
M  V30 1519 C 138.078 5.08348 2.92915 0
M  V30 1520 C 140.43 5.63218 2.88041 0
M  V30 1521 C 139.094 6.03426 2.85366 0
M  V30 1522 H 138.364 0.407977 0.618576 0
M  V30 1523 H 141.011 1.56551 1.10291 0
M  V30 1524 H 139.316 1.29941 3.69625 0
M  V30 1525 H 141.013 1.68642 3.63815 0
M  V30 1526 H 137.603 2.99915 3.06185 0
M  V30 1527 H 141.787 3.97563 2.97081 0
M  V30 1528 H 137.043 5.38667 2.89219 0
M  V30 1529 H 141.217 6.37078 2.81254 0
M  V30 1530 H 138.844 7.07999 2.76842 0
M  V30 1531 N 140.419 -1.14872 1.07899 0
M  V30 1532 C 141.659 -1.8745 0.814965 0
M  V30 1533 C 142.023 -1.80758 -0.64733 0
M  V30 1534 O 143.224 -2.48422 -1.02664 0
M  V30 1535 C 141.495 -3.32286 1.31607 0
M  V30 1536 S 143.054 -4.22537 1.18357 0
M  V30 1537 H 139.872 -0.646833 0.295174 0
M  V30 1538 H 142.474 -1.38555 1.37923 0
M  V30 1539 H 141.178 -3.34703 2.37491 0
M  V30 1540 H 140.709 -3.86238 0.747261 0
M  V30 1541 H 142.724 -4.96044 0.124586 0
M  V30 1542 N 141.898 -0.863906 -1.31812 0
M  V30 1543 C 142.845 -0.313303 -2.28664 0
M  V30 1544 C 143.815 0.584868 -1.55462 0
M  V30 1545 O 145 0.517805 -1.83639 0
M  V30 1546 C 142.14 0.48441 -3.41683 0
M  V30 1547 C 141.253 -0.440594 -4.29747 0
M  V30 1548 C 140.388 0.370652 -5.29905 0
M  V30 1549 C 139.427 -0.551164 -6.09613 0
M  V30 1550 N 138.564 0.223462 -7.01744 0
M  V30 1551 H 143.404 -1.14444 -2.75148 0
M  V30 1552 H 140.941 -0.575769 -1.35364 0
M  V30 1553 H 142.899 0.962627 -4.05943 0
M  V30 1554 H 141.529 1.28029 -2.96325 0
M  V30 1555 H 140.581 -1.03724 -3.65986 0
M  V30 1556 H 141.893 -1.14767 -4.85417 0
M  V30 1557 H 141.047 0.911638 -5.99812 0
M  V30 1558 H 139.786 1.11105 -4.74876 0
M  V30 1559 H 138.791 -1.10396 -5.38603 0
M  V30 1560 H 140.016 -1.29032 -6.66729 0
M  V30 1561 H 137.962 0.946787 -6.49132 0
M  V30 1562 H 137.879 -0.424399 -7.54808 0
M  V30 1563 H 139.147 0.745876 -7.75923 0
M  V30 1564 N 143.376 1.44774 -0.622745 0
M  V30 1565 C 144.625 2.01334 -0.121397 0
M  V30 1566 C 144.938 1.49505 1.26125 0
M  V30 1567 O 146.144 1.98139 1.85616 0
M  V30 1568 C 144.6 3.59516 -0.166298 0
M  V30 1569 C 144.208 4.20342 -1.54974 0
M  V30 1570 C 145.952 4.23582 0.279021 0
M  V30 1571 C 143.859 5.70721 -1.55021 0
M  V30 1572 H 142.789 0.752851 -0.0416172 0
M  V30 1573 H 145.44 1.66083 -0.780309 0
M  V30 1574 H 143.822 3.92027 0.559557 0
M  V30 1575 H 144.996 3.99381 -2.29851 0
M  V30 1576 H 143.311 3.68529 -1.93843 0
M  V30 1577 H 145.908 5.33868 0.298083 0
M  V30 1578 H 146.251 3.95327 1.30471 0
M  V30 1579 H 146.784 3.95843 -0.394063 0
M  V30 1580 H 143.523 6.03698 -2.55399 0
M  V30 1581 H 143.043 5.93829 -0.844245 0
M  V30 1582 H 144.722 6.34203 -1.28047 0
M  V30 1583 N 144.854 0.36279 1.53368 0
M  V30 1584 C 145.804 -0.501391 2.22419 0
M  V30 1585 C 146.788 -1.0509 1.2184 0
M  V30 1586 O 147.98 -0.981404 1.47301 0
M  V30 1587 C 145.109 -1.64201 3.01484 0
M  V30 1588 C 144.195 -1.10552 4.09438 0
M  V30 1589 N 144.586 -0.291788 5.04958 0
M  V30 1590 C 142.884 -1.3806 4.24094 0
M  V30 1591 C 143.585 0.00162655 5.817 0
M  V30 1592 N 142.561 -0.595244 5.40331 0
M  V30 1593 H 146.363 0.127159 2.93625 0
M  V30 1594 H 143.877 0.170658 1.61501 0
M  V30 1595 H 145.874 -2.27326 3.49469 0
M  V30 1596 H 144.534 -2.27365 2.31809 0
M  V30 1597 H 145.545 0.0687731 5.17854 0
M  V30 1598 H 142.222 -2.01522 3.65644 0
M  V30 1599 H 143.612 0.659278 6.68658 0
M  V30 1600 N 146.332 -1.57332 0.0918853 0
M  V30 1601 C 147.56 -1.98574 -0.581048 0
M  V30 1602 C 147.975 -0.970903 -1.61923 0
M  V30 1603 O 147.332 0.0399054 -1.82456 0
M  V30 1604 C 147.383 -3.39872 -1.23164 0
M  V30 1605 O 147.104 -4.37469 -0.234989 0
M  V30 1606 C 148.605 -3.96099 -1.99049 0
M  V30 1607 H 145.825 -0.65261 -0.156018 0
M  V30 1608 H 148.369 -2.0379 0.170225 0
M  V30 1609 H 146.524 -3.35679 -1.93386 0
M  V30 1610 H 146.938 -5.19751 -0.70418 0
M  V30 1611 H 148.412 -4.97127 -2.39934 0
M  V30 1612 H 148.889 -3.3374 -2.85507 0
M  V30 1613 H 149.495 -4.03755 -1.3365 0
M  V30 1614 N 147.81 0.181792 -1.56548 0
M  V30 1615 C 149.035 0.920019 -1.85877 0
M  V30 1616 C 149.46 1.75494 -0.677021 0
M  V30 1617 O 148.818 1.77399 0.374056 0
M  V30 1618 C 148.866 1.78112 -3.13542 0
M  V30 1619 O 147.97 2.88152 -2.95029 0
M  V30 1620 H 147.311 0.258334 -0.611686 0
M  V30 1621 H 149.841 0.183092 -2.03779 0
M  V30 1622 H 149.851 2.18314 -3.44678 0
M  V30 1623 H 148.526 1.16777 -3.99169 0
M  V30 1624 H 147.103 2.51609 -2.75222 0
M  V30 1625 N 149.288 1.51039 0.449983 0
M  V30 1626 C 150.516 1.66869 1.2232 0
M  V30 1627 C 150.931 0.360727 1.85322 0
M  V30 1628 O 150.288 -0.659531 1.70166 0
M  V30 1629 C 150.339 2.77524 2.31652 0
M  V30 1630 O 150.06 4.03252 1.7123 0
M  V30 1631 C 151.561 3.04512 3.2216 0
M  V30 1632 H 148.781 0.560326 0.369155 0
M  V30 1633 H 151.325 1.97385 0.534719 0
M  V30 1634 H 149.48 2.49642 2.96239 0
M  V30 1635 H 149.894 4.64609 2.43389 0
M  V30 1636 H 151.368 3.85551 3.95038 0
M  V30 1637 H 151.845 2.16415 3.8218 0
M  V30 1638 H 152.451 3.34005 2.63288 0
M  V30 1639 N 150.766 -0.704594 1.40972 0
M  V30 1640 C 152.043 -1.45847 1.30338 0
M  V30 1641 C 152.423 -2.10973 -0.0732344 0
M  V30 1642 O 151.771 -2.00997 -1.08685 0
M  V30 1643 C 151.981 -2.48525 2.45023 0
M  V30 1644 C 153.329 -3.1404 2.8577 0
M  V30 1645 O 154.353 -2.58848 2.44696 0
M  V30 1646 O 153.212 -4.13981 3.56766 0
M  V30 1647 H 150.306 -0.649092 0.512454 0
M  V30 1648 H 152.852 -0.735836 1.52917 0
M  V30 1649 H 151.624 -1.98994 3.36923 0
M  V30 1650 H 151.247 -3.2831 2.24272 0
M  V30 1651 N 152.244 -1.26651 -0.937939 0
M  V30 1652 C 153.493 -1.11775 -1.67897 0
M  V30 1653 C 153.806 0.33794 -1.92659 0
M  V30 1654 O 155.012 0.607434 -2.64618 0
M  V30 1655 C 153.468 -1.9523 -3.02346 0
M  V30 1656 C 153.076 -3.45393 -2.8532 0
M  V30 1657 C 154.82 -1.88972 -3.80118 0
M  V30 1658 C 152.727 -4.21083 -4.15263 0
M  V30 1659 H 151.657 -0.414696 -0.629717 0
M  V30 1660 H 154.308 -1.50988 -1.04283 0
M  V30 1661 H 152.69 -1.48853 -3.66959 0
M  V30 1662 H 153.864 -3.99561 -2.29537 0
M  V30 1663 H 152.179 -3.52921 -2.20988 0
M  V30 1664 H 154.776 -2.42805 -4.76392 0
M  V30 1665 H 155.119 -0.86113 -4.07296 0
M  V30 1666 H 155.652 -2.33189 -3.22285 0
M  V30 1667 H 152.391 -5.24425 -3.93267 0
M  V30 1668 H 151.911 -3.71695 -4.70747 0
M  V30 1669 H 153.59 -4.29706 -4.83696 0
M  V30 1670 N 153.722 1.14298 -1.08507 0
M  V30 1671 C 154.655 2.18447 -0.660004 0
M  V30 1672 C 155.633 1.59242 0.328749 0
M  V30 1673 O 156.817 1.87062 0.232367 0
M  V30 1674 C 153.944 3.38688 0.0290807 0
M  V30 1675 C 152.99 4.1646 -0.919982 0
M  V30 1676 S 153.823 4.77334 -2.42718 0
M  V30 1677 C 154.979 6.00931 -1.75024 0
M  V30 1678 H 155.212 2.54166 -1.54231 0
M  V30 1679 H 152.745 1.25446 -0.900149 0
M  V30 1680 H 154.703 4.08342 0.420378 0
M  V30 1681 H 153.364 3.01289 0.887895 0
M  V30 1682 H 152.557 5.02529 -0.384751 0
M  V30 1683 H 152.159 3.52414 -1.25223 0
M  V30 1684 H 154.451 6.69017 -1.06877 0
M  V30 1685 H 155.394 6.59044 -2.58971 0
M  V30 1686 H 155.802 5.51089 -1.22317 0
M  V30 1687 N 155.201 0.870884 1.31352 0
M  V30 1688 C 156.131 0.343096 2.30966 0
M  V30 1689 C 157.112 -0.566507 1.60389 0
M  V30 1690 O 158.297 -0.483336 1.88089 0
M  V30 1691 C 155.427 -0.455487 3.443 0
M  V30 1692 C 154.381 0.361103 4.26474 0
M  V30 1693 C 153.707 -0.563221 5.31725 0
M  V30 1694 C 155.007 1.59566 4.97329 0
M  V30 1695 H 156.701 1.17548 2.75359 0
M  V30 1696 H 154.247 0.566686 1.32381 0
M  V30 1697 H 156.2 -0.83525 4.13039 0
M  V30 1698 H 154.924 -1.32139 2.98675 0
M  V30 1699 H 153.583 0.722825 3.59403 0
M  V30 1700 H 153.231 -1.42643 4.82351 0
M  V30 1701 H 152.931 -0.0207409 5.87596 0
M  V30 1702 H 154.455 -0.939808 6.03324 0
M  V30 1703 H 155.869 1.28728 5.58661 0
M  V30 1704 H 154.266 2.07728 5.63 0
M  V30 1705 H 155.336 2.34798 4.24262 0
M  V30 1706 N 156.679 -1.44442 0.630414 0
M  V30 1707 C 157.904 -2.06927 0.139944 0
M  V30 1708 C 158.329 -1.46795 -1.17613 0
M  V30 1709 O 157.687 -0.569144 -1.72135 0
M  V30 1710 C 157.735 -3.6058 0.0379581 0
M  V30 1711 O 156.839 -3.99937 -1.0062 0
M  V30 1712 H 156.18 -0.658608 0.0844483 0
M  V30 1713 H 158.71 -1.85327 0.866891 0
M  V30 1714 H 158.72 -4.07714 -0.152856 0
M  V30 1715 H 157.395 -4.03728 0.998809 0
M  V30 1716 H 155.972 -3.64436 -0.79001 0
M  V30 1717 N 158.157 -0.370918 -1.53173 0
M  V30 1718 C 159.382 0.220293 -2.06227 0
M  V30 1719 C 159.807 1.41243 -1.24225 0
M  V30 1720 O 159.165 1.79387 -0.262645 0
M  V30 1721 C 159.213 0.586663 -3.55796 0
M  V30 1722 O 158.317 1.68317 -3.76488 0
M  V30 1723 H 157.658 0.0308099 -0.663285 0
M  V30 1724 H 160.188 -0.533068 -1.97534 0
M  V30 1725 H 160.198 0.85617 -3.98916 0
M  V30 1726 H 158.873 -0.285013 -4.14922 0
M  V30 1727 H 157.45 1.40881 -3.45264 0
M  V30 1728 N 159.635 1.57281 -0.100228 0
M  V30 1729 C 160.598 2.13158 0.842398 0
M  V30 1730 C 161.598 1.06202 1.20738 0
M  V30 1731 O 162.788 1.32066 1.13597 0
M  V30 1732 C 159.92 2.65639 2.13655 0
M  V30 1733 H 161.113 2.97766 0.357114 0
M  V30 1734 H 158.666 1.5559 0.148823 0
M  V30 1735 H 159.401 1.84566 2.66657 0
M  V30 1736 H 159.186 3.43844 1.88451 0
M  V30 1737 H 160.676 3.08846 2.81077 0
M  V30 1738 N 161.113 -0.173488 1.56642 0
M  V30 1739 C 162.338 -0.910149 1.86363 0
M  V30 1740 C 162.763 -1.75132 0.686318 0
M  V30 1741 O 162.121 -1.77595 -0.364643 0
M  V30 1742 C 162.169 -1.76447 3.14482 0
M  V30 1743 O 161.273 -2.86584 2.96553 0
M  V30 1744 H 160.614 -0.255086 0.613047 0
M  V30 1745 H 163.144 -0.172283 2.03873 0
M  V30 1746 H 163.154 -2.16483 3.45831 0
M  V30 1747 H 161.829 -1.14658 3.99783 0
M  V30 1748 H 160.406 -2.50146 2.76553 0
M  V30 1749 N 162.591 -1.51276 -0.441967 0
M  V30 1750 C 163.84 -1.6295 -1.18871 0
M  V30 1751 C 164.153 -0.349312 -1.92456 0
M  V30 1752 O 165.359 -0.345355 -2.69295 0
M  V30 1753 C 163.815 -2.87759 -2.16155 0
M  V30 1754 C 163.423 -4.22764 -1.48239 0
M  V30 1755 C 165.167 -3.08788 -2.91291 0
M  V30 1756 C 163.074 -5.38728 -2.4398 0
M  V30 1757 H 162.004 -0.606913 -0.447406 0
M  V30 1758 H 164.655 -1.77739 -0.456205 0
M  V30 1759 H 163.037 -2.66593 -2.92821 0
M  V30 1760 H 164.211 -4.54293 -0.771635 0
M  V30 1761 H 162.526 -4.07575 -0.852741 0
M  V30 1762 H 165.123 -3.92599 -3.63002 0
M  V30 1763 H 165.466 -2.21679 -3.5237 0
M  V30 1764 H 165.999 -3.30272 -2.21733 0
M  V30 1765 H 162.738 -6.28082 -1.87598 0
M  V30 1766 H 162.258 -5.1158 -3.13123 0
M  V30 1767 H 163.937 -5.70489 -3.05207 0
M  V30 1768 N 164.069 0.697108 -1.41344 0
M  V30 1769 C 165.316 1.45714 -1.40619 0
M  V30 1770 C 165.644 1.94494 -0.0147907 0
M  V30 1771 O 164.899 1.69794 0.973066 0
M  V30 1772 C 165.198 2.68553 -2.35826 0
M  V30 1773 C 164.864 2.38438 -3.82698 0
M  V30 1774 C 163.526 2.29936 -4.22709 0
M  V30 1775 C 165.878 2.13567 -4.75435 0
M  V30 1776 C 163.206 1.94656 -5.53467 0
M  V30 1777 C 165.558 1.79797 -6.06511 0
M  V30 1778 C 164.222 1.69789 -6.45545 0
M  V30 1779 H 163.492 0.533206 -0.51456 0
M  V30 1780 H 166.139 0.796901 -1.74131 0
M  V30 1781 H 164.444 3.39503 -1.95563 0
M  V30 1782 H 166.141 3.2669 -2.32539 0
M  V30 1783 H 162.731 2.4595 -3.51008 0
M  V30 1784 H 166.915 2.19082 -4.45328 0
M  V30 1785 H 162.171 1.8546 -5.82593 0
M  V30 1786 H 166.345 1.59572 -6.77872 0
M  V30 1787 H 163.972 1.4222 -7.46778 0
M  V30 1788 N 165.547 1.27147 0.931209 0
M  V30 1789 C 166.497 1.06227 2.01742 0
M  V30 1790 C 167.481 -0.00859065 1.60898 0
M  V30 1791 O 168.673 0.209537 1.75755 0
M  V30 1792 C 165.802 0.707787 3.35924 0
M  V30 1793 C 164.888 1.81661 3.83223 0
M  V30 1794 N 165.279 3.05564 4.03069 0
M  V30 1795 C 163.577 1.70249 4.12227 0
M  V30 1796 C 164.278 3.77697 4.42403 0
M  V30 1797 N 163.254 3.0544 4.49675 0
M  V30 1798 H 167.056 2.00261 2.15111 0
M  V30 1799 H 164.57 1.1781 1.11779 0
M  V30 1800 H 166.567 0.539043 4.134 0
M  V30 1801 H 165.227 -0.224964 3.2392 0
M  V30 1802 H 166.238 3.41363 3.89476 0
M  V30 1803 H 162.915 0.840329 4.08956 0
M  V30 1804 H 164.305 4.84168 4.65866 0
M  V30 1805 N 167.025 -1.13721 1.09112 0
M  V30 1806 C 167.955 -2.21148 0.749385 0
M  V30 1807 C 168.936 -1.6792 -0.271475 0
M  V30 1808 O 170.121 -1.93693 -0.140251 0
M  V30 1809 C 167.251 -3.46905 0.165659 0
M  V30 1810 C 166.205 -4.13203 1.11567 0
M  V30 1811 C 165.531 -5.33248 0.393809 0
M  V30 1812 C 166.831 -4.60912 2.45678 0
M  V30 1813 H 168.525 -2.4999 1.64758 0
M  V30 1814 H 166.071 -1.20156 0.793626 0
M  V30 1815 H 168.024 -4.21313 -0.085466 0
M  V30 1816 H 166.748 -3.17449 -0.767714 0
M  V30 1817 H 165.407 -3.40758 1.35202 0
M  V30 1818 H 165.055 -5.00054 -0.543599 0
M  V30 1819 H 164.755 -5.78552 1.02721 0
M  V30 1820 H 166.279 -6.10413 0.150908 0
M  V30 1821 H 167.693 -5.26759 2.26269 0
M  V30 1822 H 166.09 -5.16944 3.04776 0
M  V30 1823 H 167.16 -3.75603 3.06677 0
M  V30 1824 N 168.503 -0.877838 -1.30888 0
M  V30 1825 C 169.728 -0.506629 -2.01117 0
M  V30 1826 C 170.153 0.895564 -1.65412 0
M  V30 1827 O 169.511 1.5923 -0.866922 0
M  V30 1828 C 169.559 -0.680223 -3.54126 0
M  V30 1829 O 168.663 0.277033 -4.11468 0
M  V30 1830 H 168.004 -0.200518 -0.633 0
M  V30 1831 H 170.534 -1.18342 -1.66902 0
M  V30 1832 H 170.544 -0.5765 -4.03907 0
M  V30 1833 H 169.219 -1.70261 -3.79452 0
M  V30 1834 H 167.796 0.127606 -3.72682 0
M  V30 1835 N 169.982 1.44106 -0.638065 0
M  V30 1836 C 171.229 2.01978 -0.14533 0
M  V30 1837 C 171.557 1.50234 1.23532 0
M  V30 1838 O 170.812 0.679548 1.83523 0
M  V30 1839 C 171.111 3.5729 -0.0887327 0
M  V30 1840 C 170.777 4.28317 -1.40909 0
M  V30 1841 C 169.439 4.47437 -1.77069 0
M  V30 1842 C 171.791 4.6867 -2.28031 0
M  V30 1843 C 169.119 5.04171 -3.00047 0
M  V30 1844 C 171.471 5.26766 -3.50286 0
M  V30 1845 C 170.135 5.44104 -3.86661 0
M  V30 1846 H 169.405 0.739089 -0.0531801 0
M  V30 1847 H 172.052 1.72781 -0.825761 0
M  V30 1848 H 170.357 3.8594 0.675095 0
M  V30 1849 H 172.054 3.99807 0.309145 0
M  V30 1850 H 168.644 4.1377 -1.1177 0
M  V30 1851 H 172.828 4.53604 -2.01388 0
M  V30 1852 H 168.084 5.15782 -3.28298 0
M  V30 1853 H 172.258 5.56983 -4.18023 0
M  V30 1854 H 169.885 5.87832 -4.82034 0
M  V30 1855 N 171.46 0.379036 1.52974 0
M  V30 1856 C 172.709 -0.207612 2.00629 0
M  V30 1857 C 173.022 -1.48758 1.27006 0
M  V30 1858 O 174.228 -2.15365 1.65318 0
M  V30 1859 C 172.684 -0.42053 3.57435 0
M  V30 1860 C 172.292 0.845587 4.39948 0
M  V30 1861 C 174.036 -0.964102 4.13407 0
M  V30 1862 C 171.943 0.601513 5.88333 0
M  V30 1863 H 170.873 -0.0813591 0.749598 0
M  V30 1864 H 173.524 0.499853 1.76561 0
M  V30 1865 H 171.906 -1.18959 3.7771 0
M  V30 1866 H 173.08 1.61848 4.31442 0
M  V30 1867 H 171.395 1.31336 3.95145 0
M  V30 1868 H 173.992 -1.16225 5.21916 0
M  V30 1869 H 174.335 -1.93019 3.68849 0
M  V30 1870 H 174.868 -0.25487 3.96983 0
M  V30 1871 H 171.607 1.53831 6.37194 0
M  V30 1872 H 171.127 -0.132628 5.99653 0
M  V30 1873 H 172.806 0.232134 6.46583 0
M  V30 1874 N 172.938 -1.57226 0.108567 0
M  V30 1875 C 174.163 -1.99604 -0.563303 0
M  V30 1876 C 174.588 -0.987563 -1.6009 0
M  V30 1877 O 173.946 0.0421687 -1.81251 0
M  V30 1878 C 173.994 -3.40902 -1.17552 0
M  V30 1879 O 173.098 -3.42896 -2.2912 0
M  V30 1880 H 172.439 -0.648704 -0.1417 0
M  V30 1881 H 174.969 -2.03679 0.193961 0
M  V30 1882 H 174.979 -3.78886 -1.51357 0
M  V30 1883 H 173.654 -4.1382 -0.415445 0
M  V30 1884 H 172.231 -3.1672 -1.96832 0
M  V30 1885 N 174.416 0.165178 -1.56732 0
M  V30 1886 C 175.665 0.879143 -1.81532 0
M  V30 1887 C 175.978 1.83144 -0.686842 0
M  V30 1888 O 177.184 2.58823 -0.819944 0
M  V30 1889 C 175.64 1.61388 -3.21686 0
M  V30 1890 C 175.248 0.704904 -4.4242 0
M  V30 1891 C 176.992 2.3157 -3.55774 0
M  V30 1892 C 174.899 1.44022 -5.73595 0
M  V30 1893 H 173.829 0.332033 -0.676957 0
M  V30 1894 H 176.48 0.132008 -1.83025 0
M  V30 1895 H 174.862 2.40599 -3.14529 0
M  V30 1896 H 176.036 -0.0506815 -4.60772 0
M  V30 1897 H 174.351 0.112419 -4.16248 0
M  V30 1898 H 176.948 2.8719 -4.51028 0
M  V30 1899 H 177.291 3.07201 -2.8095 0
M  V30 1900 H 177.824 1.59297 -3.64513 0
M  V30 1901 H 174.563 0.72612 -6.51466 0
M  V30 1902 H 174.083 2.16898 -5.5921 0
M  V30 1903 H 175.762 1.98606 -6.15764 0
M  V30 1904 N 175.894 1.51508 0.433938 0
M  V30 1905 C 177.171 1.54888 1.19453 0
M  V30 1906 C 177.551 0.315154 2.08734 0
M  V30 1907 O 176.899 -0.699558 2.17528 0
M  V30 1908 C 177.109 2.86467 1.99342 0
M  V30 1909 C 178.457 3.38545 2.56267 0
M  V30 1910 O 179.481 2.88041 2.0955 0
M  V30 1911 O 178.34 4.26675 3.41483 0
M  V30 1912 H 175.434 0.622863 0.544032 0
M  V30 1913 H 177.98 1.63823 0.442732 0
M  V30 1914 H 176.752 3.67718 1.33788 0
M  V30 1915 H 176.375 2.8071 2.8158 0
M  V30 1916 N 177.372 -0.689602 1.41712 0
M  V30 1917 C 178.788 -1.00093 1.24312 0
M  V30 1918 C 178.988 -2.01036 0.136729 0
M  V30 1919 O 178.044 -2.47562 -0.496918 0
M  V30 1920 C 179.357 -1.51985 2.59463 0
M  V30 1921 C 180.905 -1.63838 2.66695 0
M  V30 1922 C 181.38 -2.1913 4.02177 0
M  V30 1923 N 182.871 -2.26483 4.04054 0
M  V30 1924 C 183.606 -2.70306 5.0569 0
M  V30 1925 N 183.102 -3.13691 6.17713 0
M  V30 1926 N 184.895 -2.69923 4.9305 0
M  V30 1927 H 177.046 -0.0210029 2.1239 0
M  V30 1928 H 179.309 -0.0718733 0.945272 0
M  V30 1929 H 179.015 -0.85269 3.41207 0
M  V30 1930 H 178.889 -2.50103 2.82362 0
M  V30 1931 H 181.276 -2.29664 1.85306 0
M  V30 1932 H 181.357 -0.642492 2.476 0
M  V30 1933 H 181.001 -1.53918 4.84016 0
M  V30 1934 H 180.931 -3.19482 4.18615 0
M  V30 1935 H 183.422 -1.95874 3.23174 0
M  V30 1936 H 183.735 -3.45773 6.9113 0
M  V30 1937 H 182.08 -3.11585 6.21241 0
M  V30 1938 H 185.271 -2.35382 4.04614 0
M  V30 1939 H 185.444 -3.03758 5.72394 0
M  V30 1940 N 178.85 -1.27639 -0.924453 0
M  V30 1941 C 180.08 -1.16819 -1.70402 0
M  V30 1942 C 180.488 0.277191 -1.87158 0
M  V30 1943 O 179.831 1.20025 -1.39067 0
M  V30 1944 C 179.893 -1.78305 -3.12166 0
M  V30 1945 C 179.557 -3.27502 -3.18734 0
M  V30 1946 C 180.554 -4.2409 -3.00738 0
M  V30 1947 C 178.239 -3.68269 -3.4159 0
M  V30 1948 C 180.233 -5.59422 -3.05492 0
M  V30 1949 C 177.92 -5.0373 -3.45977 0
M  V30 1950 C 178.918 -5.99116 -3.27946 0
M  V30 1951 O 178.606 -7.32108 -3.32074 0
M  V30 1952 H 178.338 -0.406931 -0.539799 0
M  V30 1953 H 180.892 -1.69078 -1.16626 0
M  V30 1954 H 179.122 -1.20528 -3.67437 0
M  V30 1955 H 180.811 -1.62154 -3.72103 0
M  V30 1956 H 181.577 -3.93931 -2.82919 0
M  V30 1957 H 177.456 -2.94496 -3.54673 0
M  V30 1958 H 181 -6.33852 -2.91337 0
M  V30 1959 H 176.897 -5.33543 -3.63321 0
M  V30 1960 H 177.665 -7.40598 -3.48507 0
M  V30 1961 N 180.328 1.1314 -1.09713 0
M  V30 1962 C 181.558 1.88048 -0.855656 0
M  V30 1963 C 181.966 1.79537 0.596919 0
M  V30 1964 O 181.309 1.16196 1.42282 0
M  V30 1965 C 181.371 3.38314 -1.21589 0
M  V30 1966 C 181.035 3.70605 -2.67397 0
M  V30 1967 C 182.032 3.69596 -3.65643 0
M  V30 1968 C 179.717 4.0017 -3.03593 0
M  V30 1969 C 181.711 3.977 -4.9811 0
M  V30 1970 C 179.398 4.27935 -4.36251 0
M  V30 1971 C 180.396 4.26685 -5.33318 0
M  V30 1972 O 180.084 4.53767 -6.63589 0
M  V30 1973 H 179.816 0.60208 -0.307368 0
M  V30 1974 H 182.37 1.44128 -1.46343 0
M  V30 1975 H 180.6 3.82752 -0.551177 0
M  V30 1976 H 182.289 3.94552 -0.953083 0
M  V30 1977 H 183.055 3.46826 -3.39023 0
M  V30 1978 H 178.934 4.00289 -2.2867 0
M  V30 1979 H 182.478 3.9664 -5.73866 0
M  V30 1980 H 178.375 4.50178 -4.62613 0
M  V30 1981 H 179.143 4.71422 -6.69107 0
M  V30 1982 N 181.806 0.884767 1.30421 0
M  V30 1983 C 182.769 0.356277 2.26414 0
M  V30 1984 C 183.769 -0.501124 1.52792 0
M  V30 1985 O 184.959 -0.30831 1.7145 0
M  V30 1986 C 182.091 -0.492316 3.37326 0
M  V30 1987 H 183.284 1.20389 2.74675 0
M  V30 1988 H 180.837 0.661607 1.41607 0
M  V30 1989 H 181.572 -1.36052 2.94381 0
M  V30 1990 H 181.357 0.121832 3.91911 0
M  V30 1991 H 182.847 -0.853871 4.08777 0
M  V30 1992 N 183.284 -1.43765 0.645699 0
M  V30 1993 C 184.53 -2.02197 0.156271 0
M  V30 1994 C 184.863 -1.50776 -1.22393 0
M  V30 1995 O 184.138 -0.697771 -1.81553 0
M  V30 1996 C 184.421 -3.59749 0.158872 0
M  V30 1997 C 184.274 -4.21419 1.57245 0
M  V30 1998 C 185.593 -4.37149 -0.50879 0
M  V30 1999 H 182.712 -0.734694 0.0582602 0
M  V30 2000 H 185.354 -1.71157 0.824951 0
M  V30 2001 H 183.504 -3.86325 -0.410525 0
M  V30 2002 H 185.176 -4.059 2.19186 0
M  V30 2003 H 183.419 -3.78356 2.122 0
M  V30 2004 H 184.09 -5.30482 1.52619 0
M  V30 2005 H 186.566 -4.16093 -0.024412 0
M  V30 2006 H 185.442 -5.4683 -0.476213 0
M  V30 2007 H 185.703 -4.12839 -1.58165 0
M  V30 2008 N 184.763 -0.387143 -1.52771 0
M  V30 2009 C 186.003 0.195537 -2.03463 0
M  V30 2010 C 186.367 1.44222 -1.26744 0
M  V30 2011 O 187.568 2.10192 -1.67549 0
M  V30 2012 C 185.839 0.459097 -3.54439 0
M  V30 2013 S 187.398 1.01237 -4.26962 0
M  V30 2014 H 184.216 0.0552675 -0.708849 0
M  V30 2015 H 186.818 -0.534992 -1.88037 0
M  V30 2016 H 185.522 -0.455382 -4.07866 0
M  V30 2017 H 185.053 1.21811 -3.74066 0
M  V30 2018 H 187.068 2.29492 -4.39941 0
M  V30 2019 N 186.241 1.57166 -0.116904 0
M  V30 2020 C 187.518 1.86645 0.585049 0
M  V30 2021 C 187.898 1.0177 1.84949 0
M  V30 2022 O 187.246 0.0960379 2.28298 0
M  V30 2023 C 187.456 3.37736 0.879507 0
M  V30 2024 C 188.804 4.06289 1.23348 0
M  V30 2025 O 189.828 3.42743 0.969836 0
M  V30 2026 O 188.687 5.18455 1.7282 0
M  V30 2027 H 185.781 0.772593 0.295007 0
M  V30 2028 H 188.327 1.69025 -0.151249 0
M  V30 2029 H 187.099 3.91296 -0.0166136 0
M  V30 2030 H 186.722 3.6078 1.67103 0
M  V30 2031 N 187.719 -0.156864 1.56817 0
M  V30 2032 C 189.13 -0.717916 1.72345 0
M  V30 2033 C 189.481 -1.82124 0.729747 0
M  V30 2034 O 188.606 -2.16141 -0.105781 0
M  V30 2035 C 189.201 -1.30904 3.12489 0
M  V30 2036 C 187.76 -1.81676 3.29653 0
M  V30 2037 C 186.907 -0.701349 2.68284 0
M  V30 2038 H 189.858 0.0686989 1.58551 0
M  V30 2039 H 189.879 -2.17882 3.11942 0
M  V30 2040 H 189.391 -0.505796 3.8479 0
M  V30 2041 H 187.492 -2.64598 2.62333 0
M  V30 2042 H 187.605 -1.95226 4.3752 0
M  V30 2043 H 185.969 -1.12548 2.28484 0
M  V30 2044 H 186.752 0.0902846 3.43181 0
M  V30 2045 N 189.197 -1.51736 -0.425897 0
M  V30 2046 C 190.127 -1.76827 -1.52494 0
M  V30 2047 C 191.108 -0.618524 -1.58456 0
M  V30 2048 O 192.293 -0.862416 -1.74 0
M  V30 2049 C 189.423 -1.90374 -2.90474 0
M  V30 2050 C 188.377 -3.0588 -2.99369 0
M  V30 2051 C 187.703 -3.04625 -4.3944 0
M  V30 2052 C 189.003 -4.45644 -2.72394 0
M  V30 2053 H 190.697 -2.68855 -1.31748 0
M  V30 2054 H 188.243 -1.29372 -0.632362 0
M  V30 2055 H 190.196 -2.0651 -3.6733 0
M  V30 2056 H 188.92 -0.95004 -3.12477 0
M  V30 2057 H 187.579 -2.89467 -2.24954 0
M  V30 2058 H 187.227 -2.0701 -4.58428 0
M  V30 2059 H 186.927 -3.82195 -4.46319 0
M  V30 2060 H 188.451 -3.22869 -5.18255 0
M  V30 2061 H 189.865 -4.62348 -3.38979 0
M  V30 2062 H 188.262 -5.25006 -2.9067 0
M  V30 2063 H 189.332 -4.54893 -1.67929 0
M  V30 2064 N 190.675 0.682077 -1.42076 0
M  V30 2065 C 192.091 0.994324 -1.24841 0
M  V30 2066 C 192.291 2.0096 -0.147389 0
M  V30 2067 O 191.347 2.47822 0.483782 0
M  V30 2068 C 192.66 1.50607 -2.60265 0
M  V30 2069 C 194.208 1.62421 -2.6756 0
M  V30 2070 C 194.683 2.16994 -4.03333 0
M  V30 2071 N 196.174 2.24337 -4.0525 0
M  V30 2072 C 196.909 2.67621 -5.07116 0
M  V30 2073 N 196.405 3.1041 -6.19368 0
M  V30 2074 N 198.198 2.67305 -4.94474 0
M  V30 2075 H 190.349 0.00973908 -2.12398 0
M  V30 2076 H 192.612 0.0668593 -0.945639 0
M  V30 2077 H 192.318 0.834583 -3.41654 0
M  V30 2078 H 192.192 2.48602 -2.83684 0
M  V30 2079 H 194.579 2.28678 -1.86521 0
M  V30 2080 H 194.66 0.629352 -2.47937 0
M  V30 2081 H 194.304 1.51349 -4.84826 0
M  V30 2082 H 194.234 3.17258 -4.20304 0
M  V30 2083 H 196.725 1.94158 -3.24209 0
M  V30 2084 H 197.038 3.42103 -6.92954 0
M  V30 2085 H 195.383 3.08286 -6.22884 0
M  V30 2086 H 198.574 2.33233 -4.05857 0
M  V30 2087 H 198.747 3.00718 -5.73997 0
M  V30 2088 N 192.153 1.28127 0.917671 0
M  V30 2089 C 193.383 1.17722 1.6978 0
M  V30 2090 C 193.791 -0.267261 1.87303 0
M  V30 2091 O 193.134 -1.19286 1.39702 0
M  V30 2092 C 193.196 1.79958 3.11216 0
M  V30 2093 C 192.86 3.29187 3.16993 0
M  V30 2094 C 193.857 4.25679 2.98485 0
M  V30 2095 C 191.542 3.70075 3.39632 0
M  V30 2096 C 193.536 5.61035 3.02521 0
M  V30 2097 C 191.223 5.05557 3.433 0
M  V30 2098 C 192.221 6.00847 3.24764 0
M  V30 2099 O 191.909 7.33859 3.28187 0
M  V30 2100 H 191.641 0.409788 0.537634 0
M  V30 2101 H 194.195 1.69694 1.15728 0
M  V30 2102 H 192.425 1.22475 3.66793 0
M  V30 2103 H 194.114 1.64125 3.71238 0
M  V30 2104 H 194.88 3.95426 2.80826 0
M  V30 2105 H 190.759 2.96373 3.53106 0
M  V30 2106 H 194.303 6.35388 2.87971 0
M  V30 2107 H 190.2 5.35462 3.60486 0
M  V30 2108 H 190.968 7.42436 3.44575 0
M  V30 2109 N 193.631 -1.12557 1.10312 0
M  V30 2110 C 194.578 -2.18247 0.750781 0
M  V30 2111 C 195.548 -1.63853 -0.272293 0
M  V30 2112 O 196.733 -1.90195 -0.151862 0
M  V30 2113 C 193.873 -3.44591 0.187379 0
M  V30 2114 C 192.986 -4.13046 1.2656 0
M  V30 2115 C 192.121 -5.27034 0.663978 0
M  V30 2116 C 191.16 -5.87353 1.72287 0
M  V30 2117 N 190.297 -6.92757 1.1416 0
M  V30 2118 H 195.137 -2.47732 1.65628 0
M  V30 2119 H 192.674 -1.21629 0.827337 0
M  V30 2120 H 194.632 -4.16904 -0.157148 0
M  V30 2121 H 193.262 -3.15527 -0.681355 0
M  V30 2122 H 192.314 -3.38924 1.72727 0
M  V30 2123 H 193.626 -4.53947 2.06721 0
M  V30 2124 H 192.78 -6.06104 0.268824 0
M  V30 2125 H 191.519 -4.87407 -0.169082 0
M  V30 2126 H 190.524 -5.06971 2.12746 0
M  V30 2127 H 191.749 -6.29051 2.55875 0
M  V30 2128 H 189.695 -6.5517 0.329984 0
M  V30 2129 H 189.612 -7.3225 1.88007 0
M  V30 2130 H 190.88 -7.75658 0.772956 0
M  V30 2131 N 195.109 -0.891671 -1.2995 0
M  V30 2132 C 196.072 -0.36828 -2.26222 0
M  V30 2133 C 197.072 0.493014 -1.53056 0
M  V30 2134 O 198.262 0.299213 -1.71611 0
M  V30 2135 C 195.394 0.47442 -3.37583 0
M  V30 2136 H 196.587 -1.21844 -2.74033 0
M  V30 2137 H 194.14 -0.669107 -1.41254 0
M  V30 2138 H 194.875 1.34489 -2.95099 0
M  V30 2139 H 194.66 -0.142615 -3.91841 0
M  V30 2140 H 196.15 0.83218 -4.09224 0
M  V30 2141 N 196.587 1.43421 -0.653314 0
M  V30 2142 C 197.534 2.30768 0.0382271 0
M  V30 2143 C 198.504 1.44755 0.814576 0
M  V30 2144 O 199.689 1.73624 0.791162 0
M  V30 2145 C 196.829 3.30336 0.998599 0
M  V30 2146 C 195.942 4.31448 0.218342 0
M  V30 2147 C 195.077 5.18098 1.17252 0
M  V30 2148 C 194.116 6.10902 0.382702 0
M  V30 2149 N 193.253 6.90176 1.28848 0
M  V30 2150 H 198.093 2.89357 -0.712511 0
M  V30 2151 H 195.63 1.42548 -0.363128 0
M  V30 2152 H 197.588 3.86572 1.56901 0
M  V30 2153 H 196.218 2.73397 1.71621 0
M  V30 2154 H 195.27 3.77506 -0.46836 0
M  V30 2155 H 196.582 4.97227 -0.395812 0
M  V30 2156 H 195.736 5.7896 1.81356 0
M  V30 2157 H 194.475 4.52444 1.82058 0
M  V30 2158 H 193.48 5.49128 -0.27169 0
M  V30 2159 H 194.705 6.78598 -0.260957 0
M  V30 2160 H 192.651 6.27171 1.92334 0
M  V30 2161 H 192.568 7.52478 0.728887 0
M  V30 2162 H 193.836 7.55543 1.91766 0
M  V30 2163 N 198.065 0.39524 1.52563 0
M  V30 2164 C 198.998 -0.4813 2.23067 0
M  V30 2165 C 199.976 -1.05927 1.23362 0
M  V30 2166 O 201.16 -1.10979 1.52368 0
M  V30 2167 C 198.287 -1.66676 2.9485 0
M  V30 2168 C 197.333 -1.21348 4.08873 0
M  V30 2169 S 198.166 -0.190102 5.35162 0
M  V30 2170 C 199.322 -1.38121 6.1047 0
M  V30 2171 H 199.555 0.117381 2.97068 0
M  V30 2172 H 197.088 0.179458 1.53354 0
M  V30 2173 H 199.046 -2.3466 3.36816 0
M  V30 2174 H 197.707 -2.23676 2.20518 0
M  V30 2175 H 196.9 -2.09877 4.58222 0
M  V30 2176 H 196.502 -0.612486 3.68951 0
M  V30 2177 H 198.794 -2.30726 6.37002 0
M  V30 2178 H 199.737 -0.928521 7.01986 0
M  V30 2179 H 200.145 -1.60071 5.41329 0
M  V30 2180 N 199.544 -1.57102 0.125237 0
M  V30 2181 C 200.492 -2.16905 -0.839927 0
M  V30 2182 C 201.486 -1.11998 -1.27094 0
M  V30 2183 O 202.692 -1.3029 -1.24195 0
M  V30 2184 H 199.067 -0.694252 -0.288995 0
M  V30 2185 H 201.038 -2.96774 -0.311115 0
M  V30 2186 C 199.787 -2.78795 -2.07771 0
M  V30 2187 H 199.11 -3.59221 -1.755 0
M  V30 2188 H 200.55 -3.2417 -2.73295 0
M  V30 2189 C 199.009 -1.76193 -2.87155 0
M  V30 2190 O 199.539 -1.21909 -3.82755 0
M  V30 2191 N 197.745 -1.45991 -2.51267 0
M  V30 2192 H 197.292 -1.90325 -1.73592 0
M  V30 2193 H 197.25 -0.775844 -3.04677 0
M  V30 2194 N 201.022 0.148545 -1.56898 0
M  V30 2195 C 202.271 0.85984 -1.82454 0
M  V30 2196 C 202.584 1.82406 -0.706229 0
M  V30 2197 O 203.79 2.57938 -0.847349 0
M  V30 2198 C 202.246 1.57967 -3.2338 0
M  V30 2199 C 201.854 0.65794 -4.43142 0
M  V30 2200 C 203.598 2.27784 -3.58211 0
M  V30 2201 C 201.505 1.3793 -5.75091 0
M  V30 2202 H 200.435 0.324834 -0.68044 0
M  V30 2203 H 203.086 0.112588 -1.83154 0
M  V30 2204 H 201.468 2.37249 -3.17063 0
M  V30 2205 H 202.642 -0.0995497 -4.60692 0
M  V30 2206 H 200.957 0.0682643 -4.16344 0
M  V30 2207 H 203.554 2.8239 -4.54048 0
M  V30 2208 H 203.897 3.04204 -2.84193 0
M  V30 2209 H 204.43 1.55421 -3.66182 0
M  V30 2210 H 201.169 0.656982 -6.52199 0
M  V30 2211 H 200.689 2.10954 -5.61479 0
M  V30 2212 H 202.368 1.92063 -6.17835 0
M  V30 2213 N 202.5 1.5196 0.417844 0
M  V30 2214 C 203.43 1.77634 1.51554 0
M  V30 2215 C 204.411 0.626918 1.58126 0
M  V30 2216 O 205.596 0.871632 1.7354 0
M  V30 2217 C 202.726 1.91911 2.8946 0
M  V30 2218 C 201.68 3.07463 2.97743 0
M  V30 2219 C 201.006 3.06951 4.37819 0
M  V30 2220 C 202.306 4.47082 2.70027 0
M  V30 2221 H 204 2.6955 1.3032 0
M  V30 2222 H 201.546 1.29706 0.625492 0
M  V30 2223 H 203.499 2.08455 3.6623 0
M  V30 2224 H 202.223 0.966598 3.11969 0
M  V30 2225 H 200.882 2.90656 2.23416 0
M  V30 2226 H 200.53 2.09438 4.57323 0
M  V30 2227 H 200.23 3.84556 4.44286 0
M  V30 2228 H 201.754 3.25613 5.16535 0
M  V30 2229 H 203.168 4.6414 3.36522 0
M  V30 2230 H 201.565 5.2654 2.87881 0
M  V30 2231 H 202.635 4.55777 1.65514 0
M  V30 2232 N 203.978 -0.674533 1.42435 0
M  V30 2233 C 205.224 -1.43671 1.43131 0
M  V30 2234 C 205.557 -1.94142 0.0476021 0
M  V30 2235 O 204.832 -1.70924 -0.928188 0
M  V30 2236 C 205.115 -2.63355 2.45594 0
M  V30 2237 C 204.968 -2.18514 3.93156 0
M  V30 2238 C 206.287 -3.65571 2.45043 0
M  V30 2239 H 203.406 -0.521077 0.521198 0
M  V30 2240 H 206.048 -0.766551 1.7385 0
M  V30 2241 H 204.198 -3.2053 2.19528 0
M  V30 2242 H 205.87 -1.66504 4.30202 0
M  V30 2243 H 204.113 -1.50086 4.07009 0
M  V30 2244 H 204.784 -3.04484 4.60428 0
M  V30 2245 H 207.26 -3.18113 2.68223 0
M  V30 2246 H 206.136 -4.46893 3.18713 0
M  V30 2247 H 206.397 -4.16716 1.47649 0
M  V30 2248 N 205.456 -1.28612 -0.910864 0
M  V30 2249 C 206.705 -1.15311 -1.65488 0
M  V30 2250 C 207.018 0.296999 -1.93332 0
M  V30 2251 O 208.224 0.551168 -2.65847 0
M  V30 2252 C 206.68 -2.01599 -2.98137 0
M  V30 2253 C 206.288 -3.51367 -2.7793 0
M  V30 2254 C 208.032 -1.96993 -3.76024 0
M  V30 2255 C 205.939 -4.29797 -4.06237 0
M  V30 2256 H 204.869 -0.42796 -0.620779 0
M  V30 2257 H 207.52 -1.53166 -1.01057 0
M  V30 2258 H 205.902 -1.56603 -3.63719 0
M  V30 2259 H 207.076 -4.0434 -2.21011 0
M  V30 2260 H 205.391 -3.57529 -2.13452 0
M  V30 2261 H 207.988 -2.52856 -4.71135 0
M  V30 2262 H 208.331 -0.94733 -4.05378 0
M  V30 2263 H 208.864 -2.39973 -3.17266 0
M  V30 2264 H 205.603 -5.32648 -3.82055 0
M  V30 2265 H 205.123 -3.81596 -4.62757 0
M  V30 2266 H 206.802 -4.39869 -4.74473 0
M  V30 2267 N 206.934 1.1197 -1.10907 0
M  V30 2268 C 208.174 1.85224 -0.864378 0
M  V30 2269 C 208.538 1.82411 0.599178 0
M  V30 2270 O 209.739 2.51057 0.960416 0
M  V30 2271 C 208.01 3.2868 -1.40371 0
M  V30 2272 S 209.569 4.1925 -1.29518 0
M  V30 2273 H 206.387 0.63878 -0.312219 0
M  V30 2274 H 208.989 1.3485 -1.41548 0
M  V30 2275 H 207.693 3.28289 -2.46281 0
M  V30 2276 H 207.224 3.84121 -0.849402 0
M  V30 2277 H 209.239 4.95539 -0.256059 0
M  V30 2278 N 208.412 0.89855 1.29475 0
M  V30 2279 C 209.658 0.524658 1.95896 0
M  V30 2280 C 209.991 -0.926468 1.70676 0
M  V30 2281 O 209.266 -1.65665 1.01908 0
M  V30 2282 C 209.549 0.81633 3.50725 0
M  V30 2283 C 209.402 2.31907 3.85408 0
M  V30 2284 C 210.721 0.302038 4.39062 0
M  V30 2285 H 207.84 0.19209 0.711527 0
M  V30 2286 H 210.482 1.12502 1.53112 0
M  V30 2287 H 208.632 0.305369 3.87298 0
M  V30 2288 H 210.304 2.89949 3.58786 0
M  V30 2289 H 208.547 2.78027 3.32992 0
M  V30 2290 H 209.218 2.47373 4.93468 0
M  V30 2291 H 211.694 0.739551 4.09475 0
M  V30 2292 H 210.57 0.535331 5.46283 0
M  V30 2293 H 210.831 -0.797216 4.34853 0
M  V30 2294 N 209.89 -1.43072 0.660911 0
M  V30 2295 C 210.823 -2.28074 -0.0758862 0
M  V30 2296 C 211.801 -1.40271 -0.822362 0
M  V30 2297 O 212.985 -1.69713 -0.820352 0
M  V30 2298 C 210.112 -3.19843 -1.11437 0
M  V30 2299 C 209.158 -4.23957 -0.465069 0
M  V30 2300 S 209.991 -5.29978 0.767078 0
M  V30 2301 C 211.147 -6.25314 -0.270682 0
M  V30 2302 H 211.38 -2.90216 0.645139 0
M  V30 2303 H 208.913 -1.47697 0.449995 0
M  V30 2304 H 210.871 -3.73257 -1.70849 0
M  V30 2305 H 209.532 -2.56863 -1.80776 0
M  V30 2306 H 208.725 -4.88299 -1.24819 0
M  V30 2307 H 208.327 -3.73959 0.0551242 0
M  V30 2308 H 210.619 -6.67932 -1.13459 0
M  V30 2309 H 211.562 -7.07293 0.337916 0
M  V30 2310 H 211.97 -5.61195 -0.609937 0
M  V30 2311 N 211.368 -0.403325 -1.52352 0
M  V30 2312 C 212.617 0.175668 -2.00934 0
M  V30 2313 C 212.93 1.46718 -1.29356 0
M  V30 2314 O 214.136 2.12708 -1.68724 0
M  V30 2315 C 212.592 0.363612 -3.58058 0
M  V30 2316 C 212.2 -0.915472 -4.38547 0
M  V30 2317 C 213.944 0.89821 -4.14888 0
M  V30 2318 C 211.851 -0.695035 -5.87302 0
M  V30 2319 H 210.781 0.0694234 -0.750797 0
M  V30 2320 H 213.432 -0.527879 -1.75743 0
M  V30 2321 H 211.814 1.12935 -3.79555 0
M  V30 2322 H 212.988 -1.68691 -4.28812 0
M  V30 2323 H 211.303 -1.37606 -3.93006 0
M  V30 2324 H 213.9 1.07907 -5.23699 0
M  V30 2325 H 214.243 1.87126 -3.71873 0
M  V30 2326 H 214.776 0.191681 -3.97338 0
M  V30 2327 H 211.515 -1.63948 -6.34666 0
M  V30 2328 H 211.035 0.0372116 -5.99788 0
M  V30 2329 H 212.714 -0.33497 -6.46132 0
M  V30 2330 N 212.846 1.57033 -0.133567 0
M  V30 2331 C 214.093 1.95686 0.520877 0
M  V30 2332 C 214.421 1.0177 1.6575 0
M  V30 2333 O 213.676 0.0443195 1.9565 0
M  V30 2334 C 213.975 3.40674 1.08057 0
M  V30 2335 C 213.641 4.50855 0.0637899 0
M  V30 2336 C 212.303 4.80716 -0.215757 0
M  V30 2337 C 214.655 5.17398 -0.62835 0
M  V30 2338 C 211.983 5.74433 -1.19348 0
M  V30 2339 C 214.335 6.12167 -1.5948 0
M  V30 2340 C 212.999 6.40414 -1.88218 0
M  V30 2341 H 212.269 0.716067 0.190602 0
M  V30 2342 H 214.916 1.9026 -0.217556 0
M  V30 2343 H 213.221 3.42865 1.89606 0
M  V30 2344 H 214.918 3.67902 1.59529 0
M  V30 2345 H 211.508 4.27605 0.291855 0
M  V30 2346 H 215.692 4.94472 -0.425562 0
M  V30 2347 H 210.948 5.94616 -1.42272 0
M  V30 2348 H 215.122 6.6281 -2.13671 0
M  V30 2349 H 212.749 7.12838 -2.64133 0
M  V30 2350 N 214.325 -0.140222 1.56975 0
M  V30 2351 C 215.574 -0.850152 1.82908 0
M  V30 2352 C 215.887 -1.82028 0.715892 0
M  V30 2353 O 217.093 -2.57485 0.861016 0
M  V30 2354 C 215.549 -1.5625 3.24213 0
M  V30 2355 C 215.157 -0.63443 4.43485 0
M  V30 2356 C 216.901 -2.25881 3.59413 0
M  V30 2357 C 214.808 -1.34879 5.75814 0
M  V30 2358 H 213.738 -0.321221 0.682153 0
M  V30 2359 H 216.389 -0.102874 1.83211 0
M  V30 2360 H 214.771 -2.35565 3.18316 0
M  V30 2361 H 215.945 0.12398 4.60633 0
M  V30 2362 H 214.26 -0.0461836 4.16374 0
M  V30 2363 H 216.857 -2.79978 4.5554 0
M  V30 2364 H 217.2 -3.02693 2.85802 0
M  V30 2365 H 217.733 -1.53477 3.67001 0
M  V30 2366 H 214.472 -0.622385 6.52539 0
M  V30 2367 H 213.992 -2.07974 5.6259 0
M  V30 2368 H 215.671 -1.88784 6.18845 0
M  V30 2369 N 215.803 -1.52179 -0.40978 0
M  V30 2370 C 217.028 -1.70347 -1.18308 0
M  V30 2371 C 217.453 -0.411887 -1.83535 0
M  V30 2372 O 216.811 0.630587 -1.6998 0
M  V30 2373 C 216.859 -2.83977 -2.22238 0
M  V30 2374 O 215.963 -2.495 -3.28365 0
M  V30 2375 H 215.304 -0.567103 -0.345384 0
M  V30 2376 H 217.834 -1.98879 -0.480445 0
M  V30 2377 H 217.844 -3.0887 -2.66577 0
M  V30 2378 H 216.519 -3.77685 -1.74146 0
M  V30 2379 H 215.096 -2.35277 -2.89308 0
M  V30 2380 N 217.281 0.66697 -1.42791 0
M  V30 2381 C 218.527 1.42754 -1.44889 0
M  V30 2382 C 218.882 1.92283 -0.0669755 0
M  V30 2383 O 218.175 1.68494 0.912154 0
M  V30 2384 C 218.369 2.6349 -2.4147 0
M  V30 2385 C 218.198 2.25776 -3.88915 0
M  V30 2386 C 216.968 2.1476 -4.57391 0
M  V30 2387 C 219.166 1.86927 -4.79127 0
M  V30 2388 N 217.148 1.70232 -5.89826 0
M  V30 2389 C 218.519 1.53378 -6.00729 0
M  V30 2390 C 220.574 1.73989 -4.66511 0
M  V30 2391 C 219.277 1.08187 -7.11117 0
M  V30 2392 C 221.303 1.30203 -5.76889 0
M  V30 2393 C 220.665 0.975818 -6.97608 0
M  V30 2394 H 216.764 0.518559 -0.585338 0
M  V30 2395 H 219.348 0.768906 -1.78874 0
M  V30 2396 H 217.519 3.27033 -2.09533 0
M  V30 2397 H 219.251 3.30123 -2.34096 0
M  V30 2398 H 216.006 2.3408 -4.11708 0
M  V30 2399 H 216.43 1.50369 -6.6009 0
M  V30 2400 H 221.072 1.97853 -3.7365 0
M  V30 2401 H 218.79 0.830701 -8.03819 0
M  V30 2402 H 222.376 1.20701 -5.69142 0
M  V30 2403 H 221.256 0.642157 -7.81566 0
M  V30 2404 N 218.759 1.29093 0.90403 0
M  V30 2405 C 219.984 1.19809 1.69294 0
M  V30 2406 C 220.409 -0.238481 1.86582 0
M  V30 2407 O 219.767 -1.1723 1.383 0
M  V30 2408 C 219.815 1.91202 3.05736 0
M  V30 2409 O 218.919 1.22611 3.93752 0
M  V30 2410 H 218.26 0.415385 0.518027 0
M  V30 2411 H 220.79 1.70586 1.12967 0
M  V30 2412 H 220.8 1.99487 3.55906 0
M  V30 2413 H 219.475 2.95692 2.92471 0
M  V30 2414 H 218.052 1.22554 3.52186 0
M  V30 2415 N 220.237 -1.11381 1.11499 0
M  V30 2416 C 221.483 -1.83403 0.865512 0
M  V30 2417 C 221.816 -1.84459 -0.607329 0
M  V30 2418 O 221.091 -1.29811 -1.44842 0
M  V30 2419 C 221.374 -3.30552 1.42855 0
M  V30 2420 C 221.227 -3.37886 2.96906 0
M  V30 2421 C 222.546 -4.26643 1.08 0
M  V30 2422 H 219.665 -0.665879 0.31587 0
M  V30 2423 H 222.307 -1.30601 1.37998 0
M  V30 2424 H 220.457 -3.75648 0.990985 0
M  V30 2425 H 222.129 -3.01343 3.49271 0
M  V30 2426 H 220.372 -2.78088 3.32941 0
M  V30 2427 H 221.043 -4.41458 3.31389 0
M  V30 2428 H 223.519 -3.89729 1.45775 0
M  V30 2429 H 222.395 -5.27986 1.50072 0
M  V30 2430 H 222.656 -4.42099 -0.00915037 0
M  V30 2431 N 221.715 -0.905404 -1.28997 0
M  V30 2432 C 223.126 -0.581953 -1.77398 0
M  V30 2433 C 223.477 0.902552 -1.74208 0
M  V30 2434 O 222.602 1.70584 -1.33154 0
M  V30 2435 C 223.197 -1.04961 -3.22131 0
M  V30 2436 C 221.756 -0.777229 -3.68288 0
M  V30 2437 C 220.903 -1.22109 -2.48967 0
M  V30 2438 H 223.854 -1.08754 -1.15578 0
M  V30 2439 H 223.875 -0.387387 -3.78523 0
M  V30 2440 H 223.387 -2.13008 -3.24421 0
M  V30 2441 H 221.488 0.290383 -3.71467 0
M  V30 2442 H 221.601 -1.37911 -4.58822 0
M  V30 2443 H 219.965 -0.639971 -2.46529 0
M  V30 2444 H 220.748 -2.30972 -2.53982 0
M  V30 2445 N 223.193 1.4272 -0.668489 0
M  V30 2446 C 224.156 2.292 0.00448567 0
M  V30 2447 C 225.156 1.43001 0.735339 0
M  V30 2448 O 226.346 1.64461 0.57429 0
M  V30 2449 C 223.478 3.25375 1.01705 0
M  V30 2450 H 224.671 2.90199 -0.756608 0
M  V30 2451 H 222.224 1.50254 -0.430506 0
M  V30 2452 H 222.959 2.69301 1.80686 0
M  V30 2453 H 222.744 3.88944 0.496463 0
M  V30 2454 H 224.234 3.90245 1.48655 0
M  V30 2455 N 224.671 0.411399 1.52136 0
M  V30 2456 C 225.917 -0.163888 2.02137 0
M  V30 2457 C 226.25 -1.44597 1.29636 0
M  V30 2458 O 225.525 -1.90272 0.403353 0
M  V30 2459 C 225.808 -0.40927 3.57767 0
M  V30 2460 C 225.661 0.889643 4.40914 0
M  V30 2461 C 226.98 -1.19042 4.23694 0
M  V30 2462 H 224.099 -0.0580896 0.734707 0
M  V30 2463 H 226.741 0.54531 1.82007 0
M  V30 2464 H 224.891 -1.0134 3.7505 0
M  V30 2465 H 226.563 1.52575 4.35337 0
M  V30 2466 H 224.806 1.50011 4.07037 0
M  V30 2467 H 225.477 0.672314 5.4789 0
M  V30 2468 H 227.953 -0.678942 4.10524 0
M  V30 2469 H 226.829 -1.33086 5.32522 0
M  V30 2470 H 227.09 -2.21166 3.82803 0
M  V30 2471 N 226.149 -1.5696 0.141893 0
M  V30 2472 C 227.396 -1.9596 -0.510492 0
M  V30 2473 C 227.724 -1.02648 -1.65208 0
M  V30 2474 O 226.979 -0.0546947 -1.95624 0
M  V30 2475 C 227.278 -3.41242 -1.06249 0
M  V30 2476 C 226.944 -4.50882 -0.0398791 0
M  V30 2477 C 225.606 -4.80595 0.241247 0
M  V30 2478 C 227.958 -5.17058 0.65578 0
M  V30 2479 C 225.286 -5.73792 1.22393 0
M  V30 2480 C 227.638 -6.11313 1.62724 0
M  V30 2481 C 226.302 -6.39407 1.91612 0
M  V30 2482 H 225.572 -0.717068 -0.186802 0
M  V30 2483 H 228.219 -1.90142 0.227643 0
M  V30 2484 H 226.524 -3.43866 -1.87785 0
M  V30 2485 H 228.221 -3.68742 -1.57576 0
M  V30 2486 H 224.811 -4.27754 -0.269174 0
M  V30 2487 H 228.995 -4.94239 0.451779 0
M  V30 2488 H 224.251 -5.93853 1.45424 0
M  V30 2489 H 228.425 -6.61668 2.17183 0
M  V30 2490 H 226.052 -7.11427 2.6791 0
M  V30 2491 N 227.627 0.131896 -1.57047 0
M  V30 2492 C 228.59 1.14638 -1.98471 0
M  V30 2493 C 229.59 1.35029 -0.873148 0
M  V30 2494 O 230.78 1.31764 -1.13946 0
M  V30 2495 C 227.912 2.50358 -2.31373 0
M  V30 2496 H 229.105 0.79064 -2.8929 0
M  V30 2497 H 226.658 0.375761 -1.51716 0
M  V30 2498 H 227.393 2.90876 -1.43393 0
M  V30 2499 H 227.178 2.36915 -3.12432 0
M  V30 2500 H 228.668 3.23395 -2.64207 0
M  V30 2501 N 229.106 1.52395 0.401703 0
M  V30 2502 C 230.353 1.66817 1.14796 0
M  V30 2503 C 230.681 0.401772 1.90305 0
M  V30 2504 O 229.936 -0.615487 1.85769 0
M  V30 2505 C 230.235 2.84578 2.16217 0
M  V30 2506 C 229.901 4.22513 1.5746 0
M  V30 2507 C 228.563 4.60029 1.41161 0
M  V30 2508 C 230.915 5.0844 1.14622 0
M  V30 2509 C 228.243 5.81144 0.80552 0
M  V30 2510 C 230.595 6.30167 0.55428 0
M  V30 2511 C 229.259 6.66426 0.378482 0
M  V30 2512 H 228.529 0.610428 0.420069 0
M  V30 2513 H 231.176 1.86512 0.434212 0
M  V30 2514 H 229.481 2.59248 2.93764 0
M  V30 2515 H 231.178 2.92933 2.73845 0
M  V30 2516 H 227.768 3.92953 1.71132 0
M  V30 2517 H 231.952 4.80034 1.26021 0
M  V30 2518 H 227.208 6.07855 0.657399 0
M  V30 2519 H 231.382 6.96071 0.213983 0
M  V30 2520 H 229.009 7.60143 -0.0932606 0
M  V30 2521 N 230.584 -0.659388 1.43143 0
M  V30 2522 C 231.832 -1.41654 1.44147 0
M  V30 2523 C 232.153 -1.94893 0.0645739 0
M  V30 2524 O 231.423 -1.74044 -0.899198 0
M  V30 2525 H 230.003 -0.525708 0.530697 0
M  V30 2526 H 232.665 -0.778097 1.78694 0
M  V30 2527 H 231.761 -2.26195 2.1504 0
M  V30 2528 N 232.062 -1.29571 -0.897171 0
M  V30 2529 C 232.995 -1.0924 -2.00354 0
M  V30 2530 C 233.973 -0.00354011 -1.626 0
M  V30 2531 O 235.157 -0.15473 -1.87864 0
M  V30 2532 C 232.284 -0.66352 -3.32137 0
M  V30 2533 C 231.33 -1.75146 -3.88878 0
M  V30 2534 S 232.163 -3.35124 -4.17674 0
M  V30 2535 C 233.319 -2.9411 -5.52494 0
M  V30 2536 H 233.552 -2.02907 -2.17292 0
M  V30 2537 H 231.085 -1.13746 -1.04408 0
M  V30 2538 H 233.043 -0.422791 -4.08317 0
M  V30 2539 H 231.704 0.253588 -3.13075 0
M  V30 2540 H 230.897 -1.40337 -4.84068 0
M  V30 2541 H 230.499 -1.94584 -3.19395 0
M  V30 2542 H 232.791 -2.41312 -6.33068 0
M  V30 2543 H 233.734 -3.88161 -5.9223 0
M  V30 2544 H 234.142 -2.32332 -5.14473 0
M  V30 2545 N 233.54 1.10788 -1.12088 0
M  V30 2546 C 234.789 1.82036 -0.868659 0
M  V30 2547 C 235.102 1.85929 0.607426 0
M  V30 2548 O 236.308 2.53346 0.97613 0
M  V30 2549 C 234.764 3.26951 -1.50435 0
M  V30 2550 C 234.372 3.31367 -3.01496 0
M  V30 2551 C 236.116 4.03053 -1.33225 0
M  V30 2552 C 234.023 4.7072 -3.58017 0
M  V30 2553 H 232.953 0.682108 -0.321318 0
M  V30 2554 H 235.604 1.24618 -1.34694 0
M  V30 2555 H 233.986 3.84343 -0.953735 0
M  V30 2556 H 235.16 2.83819 -3.6302 0
M  V30 2557 H 233.475 2.6875 -3.18061 0
M  V30 2558 H 236.072 5.05981 -1.72878 0
M  V30 2559 H 236.415 4.15387 -0.275529 0
M  V30 2560 H 236.948 3.52066 -1.85188 0
M  V30 2561 H 233.687 4.63585 -4.63432 0
M  V30 2562 H 233.207 5.1865 -3.01268 0
M  V30 2563 H 234.886 5.39685 -3.56859 0
M  V30 2564 N 235.018 0.912232 1.28515 0
M  V30 2565 C 236.265 0.544599 1.95039 0
M  V30 2566 C 236.593 -0.911435 1.71823 0
M  V30 2567 O 235.848 -1.66317 1.03137 0
M  V30 2568 C 236.147 0.798392 3.48368 0
M  V30 2569 C 235.813 2.23374 3.91682 0
M  V30 2570 C 234.475 2.62617 4.03219 0
M  V30 2571 C 236.827 3.16786 4.13879 0
M  V30 2572 C 234.155 3.94429 4.3433 0
M  V30 2573 C 236.507 4.48161 4.46469 0
M  V30 2574 C 235.171 4.8726 4.56217 0
M  V30 2575 H 234.441 0.199283 0.7137 0
M  V30 2576 H 237.088 1.15327 1.52879 0
M  V30 2577 H 235.393 0.106908 3.91654 0
M  V30 2578 H 237.09 0.493141 3.97956 0
M  V30 2579 H 233.68 1.91922 3.83228 0
M  V30 2580 H 237.864 2.87677 4.0442 0
M  V30 2581 H 233.12 4.24426 4.40082 0
M  V30 2582 H 237.294 5.20559 4.62592 0
M  V30 2583 H 234.921 5.89431 4.80078 0
M  V30 2584 N 236.496 -1.42363 0.676048 0
M  V30 2585 C 237.426 -2.33497 0.0124832 0
M  V30 2586 C 238.407 -1.50748 -0.787981 0
M  V30 2587 O 239.592 -1.79346 -0.744884 0
M  V30 2588 C 236.722 -3.34377 -0.938582 0
M  V30 2589 C 235.676 -4.27289 -0.246622 0
M  V30 2590 C 235.002 -5.18386 -1.31071 0
M  V30 2591 C 236.302 -5.14916 0.875125 0
M  V30 2592 H 237.996 -2.89233 0.773593 0
M  V30 2593 H 235.542 -1.39073 0.37346 0
M  V30 2594 H 237.495 -3.97044 -1.41188 0
M  V30 2595 H 236.219 -2.76947 -1.73113 0
M  V30 2596 H 234.878 -3.66018 0.206456 0
M  V30 2597 H 234.526 -4.57282 -2.09528 0
M  V30 2598 H 234.226 -5.81378 -0.852839 0
M  V30 2599 H 235.75 -5.83929 -1.78492 0
M  V30 2600 H 237.164 -5.71262 0.482983 0
M  V30 2601 H 235.561 -5.86747 1.25887 0
M  V30 2602 H 236.631 -4.53242 1.72335 0
M  V30 2603 N 237.974 -0.419461 -1.51915 0
M  V30 2604 C 238.884 0.407528 -2.31033 0
M  V30 2605 C 239.9 1.04413 -1.3919 0
M  V30 2606 O 241.076 1.0434 -1.72265 0
M  V30 2607 C 238.141 1.50365 -3.12396 0
M  V30 2608 C 237.202 0.889029 -4.19994 0
M  V30 2609 C 236.435 1.93291 -4.97468 0
M  V30 2610 O 236.658 3.15259 -4.75361 0
M  V30 2611 O 235.592 1.53339 -5.8204 0
M  V30 2612 H 239.418 -0.237865 -3.02767 0
M  V30 2613 H 237.003 -0.182413 -1.48282 0
M  V30 2614 H 238.885 2.13975 -3.63032 0
M  V30 2615 H 237.56 2.13345 -2.43445 0
M  V30 2616 H 236.467 0.215353 -3.7348 0
M  V30 2617 H 237.8 0.302991 -4.91267 0
M  V30 2618 N 239.452 1.56882 -0.150215 0
M  V30 2619 C 240.382 2.19935 0.784284 0
M  V30 2620 C 241.363 1.14854 1.25469 0
M  V30 2621 O 242.548 1.43209 1.31168 0
M  V30 2622 C 239.678 2.82349 2.02229 0
M  V30 2623 C 238.632 3.93285 1.68853 0
M  V30 2624 C 237.958 4.42649 2.99944 0
M  V30 2625 C 239.258 5.13904 0.932714 0
M  V30 2626 H 240.952 2.9828 0.258781 0
M  V30 2627 H 238.498 1.43473 0.123029 0
M  V30 2628 H 240.451 3.25126 2.68088 0
M  V30 2629 H 239.175 2.0134 2.57157 0
M  V30 2630 H 237.834 3.5113 1.05371 0
M  V30 2631 H 237.482 3.58458 3.52869 0
M  V30 2632 H 237.182 5.17476 2.78374 0
M  V30 2633 H 238.706 4.88099 3.66868 0
M  V30 2634 H 240.12 5.53506 1.49345 0
M  V30 2635 H 238.517 5.94515 0.81684 0
M  V30 2636 H 239.587 4.84842 -0.0749568 0
M  V30 2637 N 240.93 -0.123565 1.57115 0
M  V30 2638 C 241.878 -1.17082 2.00984 0
M  V30 2639 C 242.872 -1.43136 0.906009 0
M  V30 2640 O 244.078 -1.43152 1.09121 0
M  V30 2641 H 240.453 -0.394653 0.64012 0
M  V30 2642 H 242.424 -0.774292 2.88179 0
M  V30 2643 C 241.173 -2.49057 2.42623 0
M  V30 2644 H 240.496 -2.29846 3.27125 0
M  V30 2645 H 241.936 -3.20906 2.7712 0
M  V30 2646 C 240.395 -3.11305 1.28805 0
M  V30 2647 O 240.925 -3.97171 0.60153 0
M  V30 2648 N 239.131 -2.71111 1.04628 0
M  V30 2649 H 238.678 -2.01382 1.60634 0
M  V30 2650 H 238.636 -3.1309 0.286685 0
M  V30 2651 N 242.408 -1.52605 -0.393616 0
M  V30 2652 C 243.655 -1.67424 -1.1391 0
M  V30 2653 C 243.983 -0.411859 -1.90089 0
M  V30 2654 O 243.238 0.605626 -1.86093 0
M  V30 2655 C 243.537 -2.85721 -2.14705 0
M  V30 2656 C 243.203 -4.23342 -1.55218 0
M  V30 2657 C 241.865 -4.60771 -1.3872 0
M  V30 2658 C 244.217 -5.09041 -1.11924 0
M  V30 2659 C 241.545 -5.81563 -0.774689 0
M  V30 2660 C 243.897 -6.30452 -0.520853 0
M  V30 2661 C 242.561 -6.66617 -0.343134 0
M  V30 2662 H 241.831 -0.612648 -0.416826 0
M  V30 2663 H 244.478 -1.8674 -0.424315 0
M  V30 2664 H 242.783 -2.60803 -2.92385 0
M  V30 2665 H 244.48 -2.94382 -2.72288 0
M  V30 2666 H 241.07 -3.93855 -1.69045 0
M  V30 2667 H 245.254 -4.80695 -1.23473 0
M  V30 2668 H 240.51 -6.08196 -0.625154 0
M  V30 2669 H 244.684 -6.96175 -0.177065 0
M  V30 2670 H 242.311 -7.60083 0.133571 0
M  V30 2671 N 243.887 0.651787 -1.4349 0
M  V30 2672 C 244.834 1.76462 -1.4876 0
M  V30 2673 C 245.804 1.62641 -0.337189 0
M  V30 2674 O 246.989 1.82864 -0.544544 0
M  V30 2675 C 244.129 3.14623 -1.41796 0
M  V30 2676 C 243.242 3.39568 -2.67053 0
M  V30 2677 C 242.377 4.67585 -2.52068 0
M  V30 2678 C 241.416 4.85639 -3.72587 0
M  V30 2679 N 240.553 6.04915 -3.56402 0
M  V30 2680 H 245.393 1.71293 -2.43849 0
M  V30 2681 H 242.93 0.835889 -1.21043 0
M  V30 2682 H 244.888 3.94496 -1.35753 0
M  V30 2683 H 243.518 3.18859 -0.50288 0
M  V30 2684 H 242.57 2.53783 -2.8337 0
M  V30 2685 H 243.882 3.48795 -3.56572 0
M  V30 2686 H 243.036 5.55586 -2.4374 0
M  V30 2687 H 241.775 4.60681 -1.60075 0
M  V30 2688 H 240.78 3.96073 -3.81321 0
M  V30 2689 H 242.005 4.94372 -4.65589 0
M  V30 2690 H 239.951 5.9914 -2.67146 0
M  V30 2691 H 239.868 6.15106 -4.39524 0
M  V30 2692 H 241.136 6.95533 -3.51929 0
M  V30 2693 N 245.365 1.30045 0.890287 0
M  V30 2694 C 246.613 1.18327 1.63839 0
M  V30 2695 C 246.934 -0.263455 1.93212 0
M  V30 2696 O 246.204 -1.17856 1.56482 0
M  V30 2697 H 244.784 0.434933 0.607324 0
M  V30 2698 H 247.446 1.631 1.06698 0
M  V30 2699 H 246.542 1.74024 2.59079 0
M  V30 2700 N 246.843 -1.10192 1.12674 0
M  V30 2701 C 247.806 -2.14786 0.799979 0
M  V30 2702 C 248.806 -1.59711 -0.18685 0
M  V30 2703 O 249.996 -1.74156 0.0392558 0
M  V30 2704 C 247.128 -3.40374 0.189228 0
M  V30 2705 H 248.321 -2.45203 1.72671 0
M  V30 2706 H 245.874 -1.25597 0.930326 0
M  V30 2707 H 246.609 -3.15577 -0.747107 0
M  V30 2708 H 246.394 -3.81637 0.899766 0
M  V30 2709 H 247.884 -4.17594 -0.0228143 0
M  V30 2710 N 248.321 -0.919034 -1.28029 0
M  V30 2711 C 249.231 -0.416756 -2.30869 0
M  V30 2712 C 250.247 0.498235 -1.66714 0
M  V30 2713 O 251.423 0.383144 -1.97722 0
M  V30 2714 C 248.488 0.330274 -3.45123 0
M  V30 2715 C 247.549 -0.618578 -4.2482 0
M  V30 2716 C 246.782 0.0928959 -5.33619 0
M  V30 2717 O 247.005 1.31375 -5.55065 0
M  V30 2718 O 245.939 -0.574499 -5.99152 0
M  V30 2719 H 249.765 -1.27043 -2.75851 0
M  V30 2720 H 247.35 -0.684052 -1.3282 0
M  V30 2721 H 249.232 0.751972 -4.14636 0
M  V30 2722 H 247.907 1.1597 -3.02213 0
M  V30 2723 H 246.814 -1.08978 -3.57875 0
M  V30 2724 H 248.147 -1.41497 -4.71423 0
M  V30 2725 N 249.799 1.42003 -0.683588 0
M  V30 2726 C 250.709 2.34597 -0.0109075 0
M  V30 2727 C 251.725 1.55576 0.779245 0
M  V30 2728 O 252.901 1.88107 0.719555 0
M  V30 2729 C 249.966 3.34199 0.922588 0
M  V30 2730 C 249.027 4.29115 0.125984 0
M  V30 2731 C 248.26 5.23959 1.01502 0
M  V30 2732 O 248.483 5.23952 2.25456 0
M  V30 2733 O 247.417 6.00053 0.47111 0
M  V30 2734 H 251.243 2.93675 -0.773853 0
M  V30 2735 H 248.828 1.42654 -0.443861 0
M  V30 2736 H 250.71 3.95365 1.45823 0
M  V30 2737 H 249.385 2.77582 1.66523 0
M  V30 2738 H 248.292 3.71335 -0.453969 0
M  V30 2739 H 249.625 4.88798 -0.577736 0
M  V30 2740 N 251.277 0.427512 1.51691 0
M  V30 2741 C 252.526 -0.143679 2.01188 0
M  V30 2742 C 252.839 -1.44642 1.31674 0
M  V30 2743 O 254.045 -2.09997 1.72086 0
M  V30 2744 C 252.501 -0.306602 3.58592 0
M  V30 2745 C 252.109 0.985125 4.37035 0
M  V30 2746 C 253.853 -0.832091 4.16265 0
M  V30 2747 C 251.76 0.788382 5.86122 0
M  V30 2748 H 250.69 -0.0574701 0.751807 0
M  V30 2749 H 253.341 0.555772 1.74881 0
M  V30 2750 H 251.723 -1.06882 3.81303 0
M  V30 2751 H 252.897 1.75492 4.26074 0
M  V30 2752 H 251.212 1.4384 3.90767 0
M  V30 2753 H 253.809 -0.995617 5.25349 0
M  V30 2754 H 254.152 -1.81186 3.74803 0
M  V30 2755 H 254.685 -0.128444 3.97593 0
M  V30 2756 H 251.424 1.74025 6.31978 0
M  V30 2757 H 250.944 0.0582143 5.99772 0
M  V30 2758 H 252.623 0.437722 6.45518 0
M  V30 2759 N 252.755 -1.56801 0.158532 0
M  V30 2760 C 253.985 -2.00568 -0.495583 0
M  V30 2761 C 254.393 -1.03774 -1.58201 0
M  V30 2762 O 253.736 -0.0285797 -1.83678 0
M  V30 2763 C 253.798 -3.40768 -1.14532 0
M  V30 2764 C 253.462 -4.56553 -0.202101 0
M  V30 2765 C 254.459 -5.16714 0.574675 0
M  V30 2766 C 252.144 -5.02197 -0.101648 0
M  V30 2767 C 254.138 -6.20939 1.43924 0
M  V30 2768 C 251.825 -6.06274 0.766508 0
M  V30 2769 C 252.823 -6.65515 1.53555 0
M  V30 2770 O 252.511 -7.67575 2.38922 0
M  V30 2771 H 252.243 -0.662893 -0.13247 0
M  V30 2772 H 254.797 -2.03829 0.253559 0
M  V30 2773 H 253.027 -3.34381 -1.94233 0
M  V30 2774 H 254.716 -3.6857 -1.70033 0
M  V30 2775 H 255.482 -4.82341 0.507167 0
M  V30 2776 H 251.361 -4.55807 -0.689994 0
M  V30 2777 H 254.905 -6.67107 2.03996 0
M  V30 2778 H 250.802 -6.40073 0.835266 0
M  V30 2779 H 251.57 -7.84844 2.32296 0
M  V30 2780 N 254.233 0.115231 -1.57178 0
M  V30 2781 C 255.463 0.835224 -1.88964 0
M  V30 2782 C 255.871 1.73774 -0.74829 0
M  V30 2783 O 255.214 1.81401 0.289739 0
M  V30 2784 C 255.276 1.7178 -3.15804 0
M  V30 2785 C 254.94 0.989198 -4.46166 0
M  V30 2786 C 255.937 0.328263 -5.18863 0
M  V30 2787 C 253.622 0.969256 -4.9286 0
M  V30 2788 C 255.616 -0.342873 -6.36477 0
M  V30 2789 C 253.303 0.294324 -6.10391 0
M  V30 2790 C 254.301 -0.360582 -6.82048 0
M  V30 2791 O 253.989 -1.02474 -7.97342 0
M  V30 2792 H 253.721 0.245197 -0.629964 0
M  V30 2793 H 256.275 0.10303 -2.05141 0
M  V30 2794 H 254.505 2.49173 -2.95719 0
M  V30 2795 H 256.194 2.31255 -3.33581 0
M  V30 2796 H 256.96 0.335263 -4.8384 0
M  V30 2797 H 252.839 1.46844 -4.36987 0
M  V30 2798 H 256.383 -0.854629 -6.92345 0
M  V30 2799 H 252.28 0.285099 -6.4487 0
M  V30 2800 H 253.048 -0.929594 -8.13204 0
M  V30 2801 N 255.711 1.52812 0.385517 0
M  V30 2802 C 256.658 1.77838 1.47113 0
M  V30 2803 C 257.628 0.621757 1.54024 0
M  V30 2804 O 258.813 0.861846 1.70226 0
M  V30 2805 C 255.953 1.95618 2.84302 0
M  V30 2806 C 255.066 3.23316 2.86515 0
M  V30 2807 C 254.201 3.31394 4.15152 0
M  V30 2808 C 253.24 4.53201 4.1143 0
M  V30 2809 N 252.377 4.58542 5.3168 0
M  V30 2810 H 257.217 2.70482 1.25073 0
M  V30 2811 H 254.754 1.34006 0.606692 0
M  V30 2812 H 256.712 2.03912 3.63972 0
M  V30 2813 H 255.342 1.06331 3.04784 0
M  V30 2814 H 254.394 3.24076 1.99195 0
M  V30 2815 H 255.706 4.13045 2.79634 0
M  V30 2816 H 254.86 3.3889 5.03228 0
M  V30 2817 H 253.599 2.39645 4.24761 0
M  V30 2818 H 252.604 4.45827 3.21742 0
M  V30 2819 H 253.829 5.46271 4.03442 0
M  V30 2820 H 251.775 3.69686 5.41912 0
M  V30 2821 H 251.692 5.42148 5.26889 0
M  V30 2822 H 252.96 4.70296 6.21644 0
M  V30 2823 N 257.189 -0.644168 1.43834 0
M  V30 2824 C 258.139 -1.7501 1.46135 0
M  V30 2825 C 259.123 -1.57507 0.328685 0
M  V30 2826 O 260.315 -1.67465 0.5731 0
M  V30 2827 C 257.444 -3.13641 1.39585 0
M  V30 2828 C 256.53 -3.3666 2.57916 0
M  V30 2829 N 256.921 -3.30107 3.83227 0
M  V30 2830 C 255.219 -3.67411 2.52834 0
M  V30 2831 C 255.92 -3.53456 4.61999 0
M  V30 2832 N 254.896 -3.75705 3.9287 0
M  V30 2833 H 258.698 -1.68382 2.40883 0
M  V30 2834 H 256.212 -0.846169 1.38614 0
M  V30 2835 H 258.209 -3.92933 1.39317 0
M  V30 2836 H 256.869 -3.21444 0.45865 0
M  V30 2837 H 257.88 -3.09316 4.15384 0
M  V30 2838 H 254.557 -3.82275 1.67845 0
M  V30 2839 H 255.947 -3.54093 5.71024 0
M  V30 2840 N 258.668 -1.30515 -0.883378 0
M  V30 2841 C 259.914 -1.19607 -1.63774 0
M  V30 2842 C 260.247 0.248314 -1.92606 0
M  V30 2843 O 259.522 1.17742 -1.54813 0
M  V30 2844 C 259.805 -2.02669 -2.97653 0
M  V30 2845 C 259.658 -3.55335 -2.75784 0
M  V30 2846 C 260.977 -1.86573 -3.98596 0
M  V30 2847 H 258.096 -0.435856 -0.594305 0
M  V30 2848 H 260.738 -1.60165 -1.02212 0
M  V30 2849 H 258.888 -1.68208 -3.50197 0
M  V30 2850 H 260.56 -3.99863 -2.30016 0
M  V30 2851 H 258.803 -3.79438 -2.1026 0
M  V30 2852 H 259.474 -4.08745 -3.70988 0
M  V30 2853 H 261.95 -2.16703 -3.55217 0
M  V30 2854 H 260.826 -2.47014 -4.90179 0
M  V30 2855 H 261.087 -0.825321 -4.34328 0
M  V30 2856 N 260.146 1.09593 -1.13257 0
M  V30 2857 C 261.096 2.14345 -0.777179 0
M  V30 2858 C 262.08 1.59277 0.227966 0
M  V30 2859 O 263.272 1.76971 0.0321413 0
M  V30 2860 C 260.401 3.42439 -0.242991 0
M  V30 2861 C 259.487 4.04419 -1.27694 0
M  V30 2862 N 259.878 4.40979 -2.47732 0
M  V30 2863 C 258.176 4.31596 -1.12432 0
M  V30 2864 C 258.877 4.89784 -3.13826 0
M  V30 2865 N 257.853 4.87133 -2.41252 0
M  V30 2866 H 261.655 2.40415 -1.69049 0
M  V30 2867 H 259.169 1.26803 -1.01463 0
M  V30 2868 H 261.166 4.16889 0.0298496 0
M  V30 2869 H 259.826 3.17824 0.66467 0
M  V30 2870 H 260.837 4.32396 -2.85051 0
M  V30 2871 H 257.514 4.16595 -0.274684 0
M  V30 2872 H 258.904 5.2755 -4.16102 0
M  V30 2873 N 261.624 0.925811 1.2754 0
M  V30 2874 C 262.864 0.572521 1.96218 0
M  V30 2875 C 263.228 -0.869719 1.71172 0
M  V30 2876 O 264.429 -1.33119 2.33523 0
M  V30 2877 C 262.7 0.887325 3.4621 0
M  V30 2878 S 264.259 0.642266 4.34074 0
M  V30 2879 H 261.077 0.211403 0.678845 0
M  V30 2880 H 263.679 1.19384 1.54815 0
M  V30 2881 H 262.383 1.93469 3.61936 0
M  V30 2882 H 261.914 0.255123 3.92572 0
M  V30 2883 H 263.929 -0.500822 4.93666 0
M  V30 2884 N 263.102 -1.41638 0.69111 0
M  V30 2885 C 264.518 -1.55435 0.362224 0
M  V30 2886 C 264.718 -1.66754 -1.13117 0
M  V30 2887 O 263.774 -1.64348 -1.91692 0
M  V30 2888 C 265.087 -2.79588 1.10684 0
M  V30 2889 C 266.635 -2.9338 1.09075 0
M  V30 2890 C 267.11 -4.20414 1.81703 0
M  V30 2891 N 268.601 -4.27362 1.7865 0
M  V30 2892 C 269.336 -5.24507 2.31689 0
M  V30 2893 N 268.832 -6.27708 2.93179 0
M  V30 2894 N 270.625 -5.16416 2.2197 0
M  V30 2895 H 262.776 -1.32536 1.65976 0
M  V30 2896 H 265.039 -0.639115 0.700168 0
M  V30 2897 H 264.745 -2.77419 2.16175 0
M  V30 2898 H 264.619 -3.70973 0.682545 0
M  V30 2899 H 267.006 -2.95067 0.0441238 0
M  V30 2900 H 267.087 -2.0318 1.55407 0
M  V30 2901 H 266.731 -4.19488 2.86343 0
M  V30 2902 H 266.661 -5.09578 1.32808 0
M  V30 2903 H 269.152 -3.53415 1.33815 0
M  V30 2904 H 269.465 -6.98217 3.31229 0
M  V30 2905 H 267.81 -6.28223 2.97255 0
M  V30 2906 H 271.001 -4.34716 1.73607 0
M  V30 2907 H 271.174 -5.91958 2.63609 0
M  V30 2908 N 264.58 -0.43555 -1.51462 0
M  V30 2909 C 265.828 0.131254 -2.01673 0
M  V30 2910 C 266.149 1.43368 -1.32177 0
M  V30 2911 O 265.419 1.90524 -0.455769 0
M  V30 2912 H 263.999 0.0514954 -0.745223 0
M  V30 2913 H 266.661 -0.577847 -1.86137 0
M  V30 2914 H 265.757 0.308446 -3.10572 0
M  V30 2915 N 266.058 1.56714 -0.166846 0
M  V30 2916 C 267.306 1.96358 0.478305 0
M  V30 2917 C 267.627 1.0537 1.6408 0
M  V30 2918 O 266.897 0.119154 1.95537 0
M  V30 2919 H 265.477 0.725065 0.179692 0
M  V30 2920 H 268.139 1.93329 -0.246985 0
M  V30 2921 H 267.235 3.00547 0.841292 0
M  V30 2922 N 267.536 -0.106894 1.57237 0
M  V30 2923 C 268.776 -0.818277 1.87306 0
M  V30 2924 C 269.14 -1.76474 0.756371 0
M  V30 2925 O 270.341 -2.5186 0.939155 0
M  V30 2926 C 268.612 -1.53806 3.22612 0
M  V30 2927 S 270.171 -2.28935 3.74345 0
M  V30 2928 H 266.989 -0.272862 0.656557 0
M  V30 2929 H 269.591 -0.075988 1.95352 0
M  V30 2930 H 268.295 -0.834951 4.01817 0
M  V30 2931 H 267.826 -2.32049 3.17674 0
M  V30 2932 H 269.841 -3.54871 3.46815 0
M  V30 2933 N 269.014 -1.53014 -0.377408 0
M  V30 2934 C 270.239 -1.72818 -1.14668 0
M  V30 2935 C 270.664 -0.450725 -1.8262 0
M  V30 2936 O 270.022 0.59439 -1.7128 0
M  V30 2937 C 270.07 -2.88627 -2.16164 0
M  V30 2938 O 269.174 -2.56409 -3.22998 0
M  V30 2939 H 268.515 -0.574301 -0.333278 0
M  V30 2940 H 271.045 -1.99853 -0.438152 0
M  V30 2941 H 271.055 -3.14455 -2.59966 0
M  V30 2942 H 269.73 -3.81294 -1.66095 0
M  V30 2943 H 268.307 -2.4136 -2.84253 0
M  V30 2944 N 270.492 0.636531 -1.44174 0
M  V30 2945 C 271.738 1.39826 -1.4689 0
M  V30 2946 C 272.071 1.93947 -0.0990585 0
M  V30 2947 O 271.346 1.73325 0.882544 0
M  V30 2948 C 271.629 2.56751 -2.5249 0
M  V30 2949 C 271.482 2.08014 -3.98811 0
M  V30 2950 C 272.801 3.58946 -2.54649 0
M  V30 2951 H 269.92 0.507075 -0.53483 0
M  V30 2952 H 272.562 0.720188 -1.75822 0
M  V30 2953 H 270.712 3.14597 -2.2795 0
M  V30 2954 H 272.384 1.5504 -4.34466 0
M  V30 2955 H 270.627 1.39242 -4.10846 0
M  V30 2956 H 271.298 2.92169 -4.68339 0
M  V30 2957 H 273.774 3.1089 -2.76563 0
M  V30 2958 H 272.65 4.38286 -3.3045 0
M  V30 2959 H 272.911 4.12655 -1.58646 0
M  V30 2960 N 271.97 1.30982 0.876444 0
M  V30 2961 C 273.217 1.20296 1.62896 0
M  V30 2962 C 273.545 -0.240395 1.93009 0
M  V30 2963 O 272.8 -1.18733 1.55567 0
M  V30 2964 C 273.099 1.98572 2.9716 0
M  V30 2965 C 272.765 3.48125 2.86566 0
M  V30 2966 C 271.427 3.88905 2.83383 0
M  V30 2967 C 273.779 4.43322 2.74071 0
M  V30 2968 C 271.107 5.2316 2.65556 0
M  V30 2969 C 273.459 5.77695 2.57781 0
M  V30 2970 C 272.123 6.17704 2.52979 0
M  V30 2971 H 271.393 0.440193 0.59608 0
M  V30 2972 H 274.04 1.62177 1.01837 0
M  V30 2973 H 272.345 1.49352 3.62217 0
M  V30 2974 H 274.042 1.8769 3.54364 0
M  V30 2975 H 270.632 3.15723 2.89856 0
M  V30 2976 H 274.816 4.12752 2.75589 0
M  V30 2977 H 270.072 5.53241 2.60259 0
M  V30 2978 H 274.246 6.51091 2.47089 0
M  V30 2979 H 271.873 7.21678 2.38924 0
M  V30 2980 N 273.449 -1.08991 1.13837 0
M  V30 2981 C 274.696 -1.81258 0.902882 0
M  V30 2982 C 275.024 -1.85936 -0.570803 0
M  V30 2983 O 274.279 -1.3267 -1.43865 0
M  V30 2984 C 274.578 -3.27042 1.44147 0
M  V30 2985 C 274.244 -3.4249 2.93276 0
M  V30 2986 C 272.906 -3.46414 3.33992 0
M  V30 2987 C 275.258 -3.4666 3.892 0
M  V30 2988 C 272.586 -3.52091 4.69307 0
M  V30 2989 C 274.938 -3.53872 5.24364 0
M  V30 2990 C 273.602 -3.56066 5.646 0
M  V30 2991 H 272.872 -0.663268 0.330388 0
M  V30 2992 H 275.519 -1.28368 1.42105 0
M  V30 2993 H 273.824 -3.82599 0.844097 0
M  V30 2994 H 275.521 -3.81499 1.23528 0
M  V30 2995 H 272.111 -3.40124 2.60794 0
M  V30 2996 H 276.295 -3.42865 3.58828 0
M  V30 2997 H 271.551 -3.52079 4.9985 0
M  V30 2998 H 275.725 -3.56043 5.98503 0
M  V30 2999 H 273.352 -3.60218 6.69438 0
M  V30 3000 N 274.927 -0.932562 -1.27047 0
M  V30 3001 C 276.152 -0.591474 -1.98787 0
M  V30 3002 C 276.577 0.824601 -1.69062 0
M  V30 3003 O 275.935 1.5541 -0.933677 0
M  V30 3004 C 275.983 -0.829808 -3.50922 0
M  V30 3005 O 275.087 0.102266 -4.12273 0
M  V30 3006 H 274.428 -0.227185 -0.623926 0
M  V30 3007 H 276.958 -1.25314 -1.61733 0
M  V30 3008 H 276.968 -0.747292 -4.01098 0
M  V30 3009 H 275.643 -1.86201 -3.7189 0
M  V30 3010 H 274.22 -0.0305761 -3.72887 0
M  V30 3011 N 276.405 1.4127 -0.698611 0
M  V30 3012 C 277.352 2.30773 -0.0352094 0
M  V30 3013 C 278.322 1.47273 0.768111 0
M  V30 3014 O 279.507 1.76053 0.735524 0
M  V30 3015 C 276.647 3.33346 0.893 0
M  V30 3016 C 275.76 4.31924 0.0809695 0
M  V30 3017 C 274.895 5.21566 1.0071 0
M  V30 3018 C 273.934 6.11811 0.188155 0
M  V30 3019 N 273.071 6.93926 1.06825 0
M  V30 3020 H 277.911 2.86943 -0.804207 0
M  V30 3021 H 275.448 1.4132 -0.408294 0
M  V30 3022 H 277.406 3.91368 1.44523 0
M  V30 3023 H 276.036 2.78719 1.62836 0
M  V30 3024 H 275.088 3.75825 -0.588224 0
M  V30 3025 H 276.4 4.95716 -0.553801 0
M  V30 3026 H 275.554 5.84437 1.62845 0
M  V30 3027 H 274.293 4.58008 1.67572 0
M  V30 3028 H 273.298 5.47986 -0.446254 0
M  V30 3029 H 274.523 6.77425 -0.476716 0
M  V30 3030 H 272.469 6.32973 1.72283 0
M  V30 3031 H 272.386 7.54416 0.489123 0
M  V30 3032 H 273.654 7.61262 1.67632 0
M  V30 3033 N 277.883 0.443576 1.51229 0
M  V30 3034 C 279.132 -0.122332 2.01329 0
M  V30 3035 C 279.445 -1.43237 1.33201 0
M  V30 3036 O 280.651 -2.0816 1.74304 0
M  V30 3037 C 279.107 -0.268551 3.58897 0
M  V30 3038 C 278.715 1.03142 4.35965 0
M  V30 3039 C 280.459 -0.787894 4.17124 0
M  V30 3040 C 278.366 0.850504 5.85252 0
M  V30 3041 H 277.296 -0.0494929 0.752374 0
M  V30 3042 H 279.947 0.574289 1.74282 0
M  V30 3043 H 278.329 -1.02832 3.82415 0
M  V30 3044 H 279.503 1.80001 4.24189 0
M  V30 3045 H 277.818 1.47977 3.89219 0
M  V30 3046 H 280.415 -0.939841 5.26375 0
M  V30 3047 H 280.758 -1.77201 3.76703 0
M  V30 3048 H 281.291 -0.0862669 3.97706 0
M  V30 3049 H 278.03 1.80718 6.30096 0
M  V30 3050 H 277.55 0.121825 5.99676 0
M  V30 3051 H 279.229 0.506163 6.45017 0
M  V30 3052 N 279.361 -1.56624 0.175154 0
M  V30 3053 C 280.586 -2.01813 -0.478137 0
M  V30 3054 C 281.011 -1.05457 -1.55757 0
M  V30 3055 O 280.369 -0.0347439 -1.81267 0
M  V30 3056 C 280.417 -3.45581 -1.02987 0
M  V30 3057 O 279.521 -3.52305 -2.14371 0
M  V30 3058 H 278.862 -0.65413 -0.114059 0
M  V30 3059 H 281.392 -2.02673 0.280173 0
M  V30 3060 H 281.402 -3.84965 -1.35151 0
M  V30 3061 H 280.077 -4.1521 -0.239556 0
M  V30 3062 H 278.654 -3.24783 -1.83222 0
M  V30 3063 N 280.839 0.0985539 -1.57292 0
M  V30 3064 C 282.087 0.801092 -1.85545 0
M  V30 3065 C 282.408 1.79438 -0.763353 0
M  V30 3066 O 281.678 1.94763 0.21073 0
M  V30 3067 H 280.258 0.29884 -0.684619 0
M  V30 3068 H 282.92 0.0810064 -1.94732 0
M  V30 3069 H 282.016 1.3338 -2.82163 0
M  V30 3070 N 282.317 1.53212 0.369288 0
M  V30 3071 C 283.563 1.69466 1.11397 0
M  V30 3072 C 283.896 0.443257 1.89074 0
M  V30 3073 O 283.171 -0.559386 1.86282 0
M  V30 3074 C 283.454 2.9422 2.07621 0
M  V30 3075 C 283.307 4.29508 1.33577 0
M  V30 3076 C 284.626 3.14565 3.07794 0
M  V30 3077 H 281.745 0.616667 0.403597 0
M  V30 3078 H 284.387 1.85845 0.395179 0
M  V30 3079 H 282.537 2.80387 2.68916 0
M  V30 3080 H 284.209 4.55147 0.750955 0
M  V30 3081 H 282.452 4.29088 0.637618 0
M  V30 3082 H 283.123 5.12926 2.03989 0
M  V30 3083 H 285.599 3.2756 2.56601 0
M  V30 3084 H 284.475 4.03297 3.72348 0
M  V30 3085 H 284.736 2.29675 3.77759 0
M  V30 3086 N 283.795 -0.628877 1.44509 0
M  V30 3087 C 284.725 -1.75187 1.54376 0
M  V30 3088 C 285.706 -1.65411 0.396618 0
M  V30 3089 O 286.891 -1.84137 0.617031 0
M  V30 3090 C 284.021 -3.13725 1.48976 0
M  V30 3091 C 282.975 -3.38291 2.62189 0
M  V30 3092 C 282.301 -4.76883 2.41841 0
M  V30 3093 C 283.601 -3.30632 4.04326 0
M  V30 3094 H 285.295 -1.67187 2.48373 0
M  V30 3095 H 282.841 -0.802909 1.19538 0
M  V30 3096 H 284.794 -3.92064 1.54478 0
M  V30 3097 H 283.518 -3.22515 0.514961 0
M  V30 3098 H 282.177 -2.62334 2.56079 0
M  V30 3099 H 281.825 -4.82378 1.42548 0
M  V30 3100 H 281.525 -4.94278 3.17747 0
M  V30 3101 H 283.049 -5.57449 2.49165 0
M  V30 3102 H 284.463 -3.98873 4.11793 0
M  V30 3103 H 282.86 -3.59561 4.80454 0
M  V30 3104 H 283.93 -2.28404 4.27738 0
M  V30 3105 N 285.273 -1.31445 -0.869486 0
M  V30 3106 C 286.501 -1.24122 -1.65534 0
M  V30 3107 C 286.916 0.193387 -1.87807 0
M  V30 3108 O 286.273 1.12557 -1.43656 0
M  V30 3109 C 286.324 -1.98229 -3.02304 0
M  V30 3110 O 286.045 -3.3609 -2.81026 0
M  V30 3111 C 287.546 -1.97751 -3.96749 0
M  V30 3112 H 284.766 -0.428868 -0.516055 0
M  V30 3113 H 287.31 -1.73328 -1.08525 0
M  V30 3114 H 285.465 -1.52782 -3.56001 0
M  V30 3115 H 285.879 -3.7383 -3.67902 0
M  V30 3116 H 287.353 -2.54114 -4.90031 0
M  V30 3117 H 287.83 -0.960137 -4.28577 0
M  V30 3118 H 288.436 -2.43079 -3.48988 0
M  V30 3119 N 286.751 1.08385 -1.14413 0
M  V30 3120 C 287.998 1.80776 -0.912482 0
M  V30 3121 C 288.326 1.86236 0.560934 0
M  V30 3122 O 287.581 1.33431 1.43159 0
M  V30 3123 C 287.88 3.26273 -1.45879 0
M  V30 3124 C 287.546 3.4093 -2.95089 0
M  V30 3125 C 286.208 3.44638 -3.35824 0
M  V30 3126 C 288.56 3.44591 -3.91033 0
M  V30 3127 C 285.888 3.49597 -4.71167 0
M  V30 3128 C 288.24 3.51086 -5.26233 0
M  V30 3129 C 286.904 3.53067 -5.6648 0
M  V30 3130 H 286.174 0.661507 -0.333901 0
M  V30 3131 H 288.821 1.27613 -1.42784 0
M  V30 3132 H 287.126 3.82146 -0.864376 0
M  V30 3133 H 288.823 3.80839 -1.2555 0
M  V30 3134 H 285.413 3.38736 -2.62594 0
M  V30 3135 H 289.597 3.40957 -3.60641 0
M  V30 3136 H 284.853 3.49424 -5.0171 0
M  V30 3137 H 289.027 3.52864 -6.00383 0
M  V30 3138 H 286.654 3.56662 -6.71339 0
M  V30 3139 N 288.23 0.939286 1.26551 0
M  V30 3140 C 289.163 0.391702 2.24813 0
M  V30 3141 C 290.141 -0.518421 1.54114 0
M  V30 3142 O 291.325 -0.456299 1.82894 0
M  V30 3143 C 288.452 -0.437382 3.35864 0
M  V30 3144 C 287.498 0.410946 4.24516 0
M  V30 3145 S 288.331 1.83372 5.03125 0
M  V30 3146 C 289.487 1.01264 6.17654 0
M  V30 3147 H 289.72 1.22448 2.70913 0
M  V30 3148 H 287.253 0.742269 1.35387 0
M  V30 3149 H 289.211 -0.909837 4.0029 0
M  V30 3150 H 287.872 -1.24482 2.8838 0
M  V30 3151 H 287.065 -0.224191 5.03501 0
M  V30 3152 H 286.667 0.818014 3.64945 0
M  V30 3153 H 288.959 0.254023 6.77024 0
M  V30 3154 H 289.902 1.77589 6.85469 0
M  V30 3155 H 290.31 0.549532 5.61819 0
M  V30 3156 N 289.708 -1.40897 0.706093 0
M  V30 3157 C 290.936 -2.05373 0.250887 0
M  V30 3158 C 291.351 -1.53172 -1.10381 0
M  V30 3159 O 290.708 -0.684305 -1.69185 0
M  V30 3160 C 290.759 -3.6088 0.211571 0
M  V30 3161 O 290.48 -4.11153 1.51276 0
M  V30 3162 C 291.981 -4.42517 -0.263346 0
M  V30 3163 H 289.201 -0.66115 0.114552 0
M  V30 3164 H 291.745 -1.80479 0.961635 0
M  V30 3165 H 289.9 -3.84777 -0.450073 0
M  V30 3166 H 290.314 -5.05279 1.40689 0
M  V30 3167 H 291.788 -5.51479 -0.239718 0
M  V30 3168 H 292.265 -4.19396 -1.30397 0
M  V30 3169 H 292.871 -4.23708 0.367677 0
M  V30 3170 N 291.186 -0.45159 -1.50991 0
M  V30 3171 C 292.411 0.110667 -2.07105 0
M  V30 3172 C 292.836 1.3446 -1.31538 0
M  V30 3173 O 292.194 1.77743 -0.357365 0
M  V30 3174 C 292.242 0.397238 -3.58405 0
M  V30 3175 O 291.346 1.48124 -3.84881 0
M  V30 3176 H 290.687 -0.00439271 -0.663985 0
M  V30 3177 H 293.217 -0.637026 -1.9443 0
M  V30 3178 H 293.227 0.64351 -4.02893 0
M  V30 3179 H 291.902 -0.504553 -4.12828 0
M  V30 3180 H 290.479 1.22381 -3.52246 0
M  V30 3181 N 292.664 1.56529 -0.183458 0
M  V30 3182 C 293.911 1.97244 0.458357 0
M  V30 3183 C 294.239 1.06992 1.62428 0
M  V30 3184 O 293.494 0.106542 1.9541 0
M  V30 3185 C 293.793 3.43939 0.971637 0
M  V30 3186 C 293.459 4.5083 -0.0796784 0
M  V30 3187 C 292.121 4.79786 -0.368584 0
M  V30 3188 C 294.473 5.15138 -0.792638 0
M  V30 3189 C 291.801 5.70345 -1.37563 0
M  V30 3190 C 294.153 6.06784 -1.78875 0
M  V30 3191 C 292.817 6.34102 -2.08497 0
M  V30 3192 H 292.087 0.721768 0.167725 0
M  V30 3193 H 294.734 1.89472 -0.277976 0
M  V30 3194 H 293.039 3.48724 1.78602 0
M  V30 3195 H 294.736 3.72791 1.47744 0
M  V30 3196 H 291.326 4.28317 0.155668 0
M  V30 3197 H 295.51 4.92868 -0.582659 0
M  V30 3198 H 290.766 5.89789 -1.61118 0
M  V30 3199 H 294.94 6.55677 -2.3465 0
M  V30 3200 H 292.567 7.04074 -2.86678 0
M  V30 3201 N 294.142 -0.090211 1.57342 0
M  V30 3202 C 295.372 -0.805055 1.90269 0
M  V30 3203 C 295.78 -1.72561 0.775842 0
M  V30 3204 O 295.123 -1.81839 -0.260843 0
M  V30 3205 C 295.185 -1.66734 3.18497 0
M  V30 3206 C 294.849 -0.918092 4.47683 0
M  V30 3207 C 295.846 -0.245674 5.19319 0
M  V30 3208 C 293.531 -0.890724 4.94339 0
M  V30 3209 C 295.525 0.444088 6.35851 0
M  V30 3210 C 293.212 -0.197179 6.10782 0
M  V30 3211 C 294.21 0.469044 6.81388 0
M  V30 3212 O 293.898 1.15146 7.95611 0
M  V30 3213 H 293.63 -0.235143 0.633785 0
M  V30 3214 H 296.184 -0.0703805 2.05279 0
M  V30 3215 H 294.414 -2.44437 2.99646 0
M  V30 3216 H 296.103 -2.25919 3.37217 0
M  V30 3217 H 296.869 -0.258246 4.84312 0
M  V30 3218 H 292.748 -1.39873 4.39268 0
M  V30 3219 H 296.292 0.964667 6.90898 0
M  V30 3220 H 292.189 -0.18247 6.45242 0
M  V30 3221 H 292.957 1.05885 8.11622 0
M  V30 3222 N 295.62 -1.53406 -0.361157 0
M  V30 3223 C 296.869 -1.69022 -1.10066 0
M  V30 3224 C 297.182 -0.450838 -1.90333 0
M  V30 3225 O 298.388 -0.487617 -2.67085 0
M  V30 3226 C 296.844 -2.98812 -2.00598 0
M  V30 3227 C 296.452 -4.30027 -1.25621 0
M  V30 3228 C 298.196 -3.23795 -2.74513 0
M  V30 3229 C 296.103 -5.50903 -2.1508 0
M  V30 3230 H 295.033 -0.629776 -0.414606 0
M  V30 3231 H 297.684 -1.79907 -0.361348 0
M  V30 3232 H 296.066 -2.8174 -2.78278 0
M  V30 3233 H 297.24 -4.57745 -0.529739 0
M  V30 3234 H 295.555 -4.11522 -0.635496 0
M  V30 3235 H 298.152 -4.11289 -3.41681 0
M  V30 3236 H 298.495 -2.40045 -3.40123 0
M  V30 3237 H 299.028 -3.41561 -2.03914 0
M  V30 3238 H 295.767 -6.37143 -1.54041 0
M  V30 3239 H 295.287 -5.27459 -2.85565 0
M  V30 3240 H 296.966 -5.85865 -2.74538 0
M  V30 3241 N 297.098 0.621204 -1.44841 0
M  V30 3242 C 298.509 1.20298 -1.42777 0
M  V30 3243 C 298.86 1.95639 -0.148259 0
M  V30 3244 O 297.985 2.02955 0.750892 0
M  V30 3245 C 298.58 2.1882 -2.58657 0
M  V30 3246 C 297.139 2.72403 -2.59756 0
M  V30 3247 C 296.286 1.4757 -2.34773 0
M  V30 3248 H 299.237 0.411297 -1.53278 0
M  V30 3249 H 299.258 3.01607 -2.31977 0
M  V30 3250 H 298.77 1.63957 -3.51766 0
M  V30 3251 H 296.871 3.31242 -1.70615 0
M  V30 3252 H 296.984 3.17765 -3.58556 0
M  V30 3253 H 295.348 1.76051 -1.8406 0
M  V30 3254 H 296.131 0.945954 -3.3001 0
M  V30 3255 N 298.576 1.31904 0.862503 0
M  V30 3256 C 299.824 1.21776 1.61292 0
M  V30 3257 C 300.145 -0.222413 1.93727 0
M  V30 3258 O 299.415 -1.1451 1.58947 0
M  V30 3259 H 297.995 0.447717 0.597962 0
M  V30 3260 H 300.657 1.65326 1.03215 0
M  V30 3261 H 299.753 1.7948 2.5533 0
M  V30 3262 N 300.054 -1.07777 1.14986 0
M  V30 3263 C 301.279 -1.84558 0.946213 0
M  V30 3264 C 301.704 -1.81323 -0.500362 0
M  V30 3265 O 301.062 -1.20301 -1.35637 0
M  V30 3266 C 301.11 -3.29736 1.45968 0
M  V30 3267 O 300.214 -4.07149 0.65601 0
M  V30 3268 H 299.555 -0.571641 0.33782 0
M  V30 3269 H 302.085 -1.35991 1.52865 0
M  V30 3270 H 302.095 -3.80574 1.47063 0
M  V30 3271 H 300.77 -3.31406 2.51283 0
M  V30 3272 H 299.347 -3.65994 0.714322 0
M  V30 3273 N 301.532 -0.945985 -1.26051 0
M  V30 3274 C 302.781 -0.591836 -1.92822 0
M  V30 3275 C 303.094 0.873956 -1.7499 0
M  V30 3276 O 304.3 1.33769 -2.36259 0
M  V30 3277 C 302.756 -1.00776 -3.45503 0
M  V30 3278 C 302.364 -2.4955 -3.7206 0
M  V30 3279 C 304.108 -0.725735 -4.1825 0
M  V30 3280 C 302.015 -2.84988 -5.18205 0
M  V30 3281 H 300.945 -0.217635 -0.721908 0
M  V30 3282 H 303.596 -1.14927 -1.43052 0
M  V30 3283 H 301.978 -0.378812 -3.94184 0
M  V30 3284 H 303.152 -3.1739 -3.34066 0
M  V30 3285 H 301.467 -2.75133 -3.12555 0
M  V30 3286 H 304.064 -0.966771 -5.25887 0
M  V30 3287 H 304.407 0.337639 -4.14929 0
M  V30 3288 H 304.94 -1.31463 -3.7545 0
M  V30 3289 H 301.679 -3.90307 -5.26631 0
M  V30 3290 H 301.199 -2.21813 -5.57278 0
M  V30 3291 H 302.878 -2.73712 -5.86252 0
M  V30 3292 N 303.011 1.40521 -0.713556 0
M  V30 3293 C 303.944 2.28198 -0.00881422 0
M  V30 3294 C 304.922 1.43227 0.769735 0
M  V30 3295 O 306.106 1.72641 0.756799 0
M  V30 3296 C 303.233 3.23758 0.994899 0
M  V30 3297 C 302.279 4.25391 0.3074 0
M  V30 3298 S 303.112 5.26765 -0.963247 0
M  V30 3299 C 304.268 6.25888 0.0384143 0
M  V30 3300 H 304.501 2.87622 -0.752407 0
M  V30 3301 H 302.034 1.45925 -0.504502 0
M  V30 3302 H 303.992 3.79341 1.56879 0
M  V30 3303 H 302.653 2.63396 1.71118 0
M  V30 3304 H 301.846 4.92596 1.0661 0
M  V30 3305 H 301.448 3.73497 -0.193879 0
M  V30 3306 H 303.74 6.71683 0.885912 0
M  V30 3307 H 304.683 7.05552 -0.60019 0
M  V30 3308 H 305.091 5.63072 0.401233 0
M  V30 3309 N 304.489 0.459591 1.5075 0
M  V30 3310 C 305.419 -0.330644 2.31147 0
M  V30 3311 C 306.4 -1.00087 1.37538 0
M  V30 3312 O 307.585 -1.00025 1.66459 0
M  V30 3313 C 304.715 -1.41958 3.16962 0
M  V30 3314 C 303.669 -0.871608 4.19031 0
M  V30 3315 C 302.995 -2.05797 4.9351 0
M  V30 3316 C 304.295 0.109251 5.22186 0
M  V30 3317 H 305.989 0.340336 2.97459 0
M  V30 3318 H 303.535 0.165119 1.4305 0
M  V30 3319 H 305.488 -1.9798 3.71997 0
M  V30 3320 H 304.212 -2.11917 2.48513 0
M  V30 3321 H 302.871 -0.333442 3.6508 0
M  V30 3322 H 302.519 -2.74427 4.21544 0
M  V30 3323 H 302.219 -1.6976 5.62544 0
M  V30 3324 H 303.743 -2.62331 5.51375 0
M  V30 3325 H 305.157 -0.361405 5.7216 0
M  V30 3326 H 303.554 0.383316 5.98875 0
M  V30 3327 H 304.624 1.03887 4.73641 0
M  V30 3328 N 305.967 -1.56429 0.191757 0
M  V30 3329 C 307.207 -1.99383 -0.450099 0
M  V30 3330 C 307.571 -1.07581 -1.59029 0
M  V30 3331 O 308.772 -1.39758 -2.29611 0
M  V30 3332 C 307.043 -3.45841 -0.901611 0
M  V30 3333 S 308.602 -4.10822 -1.54177 0
M  V30 3334 H 305.42 -0.696253 -0.144057 0
M  V30 3335 H 308.022 -1.93276 0.294036 0
M  V30 3336 H 306.726 -4.10354 -0.0616596 0
M  V30 3337 H 306.257 -3.55757 -1.67929 0
M  V30 3338 H 308.272 -4.07553 -2.83046 0
M  V30 3339 N 307.445 0.0818655 -1.57387 0
M  V30 3340 C 308.691 0.784074 -1.8703 0
M  V30 3341 C 309.024 1.77729 -0.782689 0
M  V30 3342 O 308.299 1.93384 0.208051 0
M  V30 3343 C 308.582 1.50105 -3.27323 0
M  V30 3344 C 308.435 0.524925 -4.46727 0
M  V30 3345 C 309.754 2.44843 -3.65705 0
M  V30 3346 H 306.873 0.283582 -0.680257 0
M  V30 3347 H 309.515 0.0474352 -1.89941 0
M  V30 3348 H 307.665 2.12897 -3.24972 0
M  V30 3349 H 309.337 -0.0970111 -4.61198 0
M  V30 3350 H 307.58 -0.160606 -4.33503 0
M  V30 3351 H 308.251 1.064 -5.41648 0
M  V30 3352 H 310.727 1.92135 -3.69085 0
M  V30 3353 H 309.603 2.92018 -4.64776 0
M  V30 3354 H 309.864 3.29197 -2.95096 0
M  V30 3355 N 308.923 1.53595 0.353017 0
M  V30 3356 C 310.153 1.74058 1.11299 0
M  V30 3357 C 310.561 0.475205 1.83135 0
M  V30 3358 O 309.904 -0.562344 1.74881 0
M  V30 3359 C 309.966 2.85994 2.17825 0
M  V30 3360 C 309.63 4.25923 1.65647 0
M  V30 3361 C 310.627 5.07829 1.11383 0
M  V30 3362 C 308.312 4.72377 1.7078 0
M  V30 3363 C 310.306 6.34285 0.629439 0
M  V30 3364 C 307.993 5.98808 1.21953 0
M  V30 3365 C 308.991 6.79594 0.681265 0
M  V30 3366 O 308.679 8.03651 0.200248 0
M  V30 3367 H 308.411 0.585327 0.338183 0
M  V30 3368 H 310.965 2.01186 0.413927 0
M  V30 3369 H 309.195 2.54368 2.91262 0
M  V30 3370 H 310.884 2.94515 2.79313 0
M  V30 3371 H 311.65 4.73107 1.06746 0
M  V30 3372 H 307.529 4.0956 2.11617 0
M  V30 3373 H 311.073 6.97288 0.208636 0
M  V30 3374 H 306.97 6.33026 1.26287 0
M  V30 3375 H 307.738 8.1788 0.318416 0
M  V30 3376 N 310.401 -0.613514 1.45168 0
M  V30 3377 C 311.631 -1.39743 1.52169 0
M  V30 3378 C 312.039 -1.88596 0.151086 0
M  V30 3379 O 311.382 -1.6251 -0.856521 0
M  V30 3380 C 311.444 -2.64035 2.43979 0
M  V30 3381 C 311.108 -2.36861 3.90827 0
M  V30 3382 C 312.105 -1.97591 4.80889 0
M  V30 3383 C 309.79 -2.49956 4.35692 0
M  V30 3384 C 311.784 -1.71768 6.1382 0
M  V30 3385 C 309.471 -2.23747 5.68665 0
M  V30 3386 C 310.469 -1.84714 6.57548 0
M  V30 3387 O 310.157 -1.58809 7.88058 0
M  V30 3388 H 309.889 -0.434382 0.517966 0
M  V30 3389 H 312.443 -0.75587 1.90986 0
M  V30 3390 H 310.673 -3.3089 2.00122 0
M  V30 3391 H 312.362 -3.26069 2.41731 0
M  V30 3392 H 313.128 -1.87015 4.47493 0
M  V30 3393 H 309.007 -2.79305 3.66756 0
M  V30 3394 H 312.551 -1.41227 6.83155 0
M  V30 3395 H 308.448 -2.33938 6.01617 0
M  V30 3396 H 309.216 -1.7291 8.00028 0
M  V30 3397 N 311.879 -1.3236 -0.855495 0
M  V30 3398 C 313.295 -1.11332 -1.14356 0
M  V30 3399 C 313.495 0.106751 -2.01217 0
M  V30 3400 O 312.551 0.791891 -2.39761 0
M  V30 3401 C 313.864 -2.39237 -1.82171 0
M  V30 3402 C 315.412 -2.44986 -1.9481 0
M  V30 3403 C 315.887 -3.7281 -2.66039 0
M  V30 3404 N 317.378 -3.73787 -2.73565 0
M  V30 3405 C 318.113 -4.69394 -3.29327 0
M  V30 3406 N 317.609 -5.75367 -3.85907 0
M  V30 3407 N 319.402 -4.56893 -3.27423 0
M  V30 3408 H 311.553 -2.10586 -0.277027 0
M  V30 3409 H 313.816 -0.929701 -0.185364 0
M  V30 3410 H 313.522 -3.28431 -1.25802 0
M  V30 3411 H 313.396 -2.50134 -2.82335 0
M  V30 3412 H 315.783 -1.56252 -2.50338 0
M  V30 3413 H 315.864 -2.38043 -0.936448 0
M  V30 3414 H 315.508 -4.61918 -2.11174 0
M  V30 3415 H 315.438 -3.77024 -3.67642 0
M  V30 3416 H 317.929 -2.97189 -2.33424 0
M  V30 3417 H 318.242 -6.44378 -4.26611 0
M  V30 3418 H 316.587 -5.79123 -3.84242 0
M  V30 3419 H 319.778 -3.73269 -2.82467 0
M  V30 3420 H 319.951 -5.31577 -3.7058 0
M  V30 3421 N 313.357 1.07166 -1.15556 0
M  V30 3422 C 314.606 1.79181 -0.926132 0
M  V30 3423 C 314.919 1.87768 0.547967 0
M  V30 3424 O 316.125 2.56323 0.895036 0
M  V30 3425 C 314.581 3.22 -1.60761 0
M  V30 3426 C 314.189 3.21607 -3.11886 0
M  V30 3427 C 315.933 3.9861 -1.4598 0
M  V30 3428 C 313.84 4.59092 -3.72812 0
M  V30 3429 H 312.77 0.67154 -0.342856 0
M  V30 3430 H 315.421 1.2027 -1.3859 0
M  V30 3431 H 313.803 3.81115 -1.07553 0
M  V30 3432 H 314.977 2.72127 -3.71865 0
M  V30 3433 H 313.292 2.58495 -3.2645 0
M  V30 3434 H 315.889 5.00225 -1.88888 0
M  V30 3435 H 316.232 4.143 -0.407541 0
M  V30 3436 H 316.765 3.45996 -1.96295 0
M  V30 3437 H 313.504 4.48606 -4.77946 0
M  V30 3438 H 313.024 5.08803 -3.17616 0
M  V30 3439 H 314.703 5.28059 -3.73848 0
M  V30 3440 N 314.835 0.952656 1.25548 0
M  V30 3441 C 316.065 0.622592 1.96996 0
M  V30 3442 C 316.473 -0.809112 1.71026 0
M  V30 3443 O 315.816 -1.55258 0.981861 0
M  V30 3444 C 315.878 0.798946 3.5051 0
M  V30 3445 C 315.542 2.20744 4.00151 0
M  V30 3446 C 316.539 3.18394 4.11001 0
M  V30 3447 C 314.224 2.5311 4.33867 0
M  V30 3448 C 316.218 4.46504 4.54877 0
M  V30 3449 C 313.905 3.8145 4.7743 0
M  V30 3450 C 314.903 4.77959 4.87897 0
M  V30 3451 O 314.591 6.04012 5.30494 0
M  V30 3452 H 314.323 0.232503 0.634758 0
M  V30 3453 H 316.877 1.2789 1.60728 0
M  V30 3454 H 315.107 0.0854903 3.86605 0
M  V30 3455 H 316.796 0.47023 4.03167 0
M  V30 3456 H 317.562 2.94715 3.85186 0
M  V30 3457 H 313.441 1.78719 4.24948 0
M  V30 3458 H 316.985 5.21835 4.62962 0
M  V30 3459 H 312.882 4.04936 5.0269 0
M  V30 3460 H 313.65 6.0736 5.48685 0
M  V30 3461 N 316.313 -1.40141 0.720998 0
M  V30 3462 C 317.243 -2.33339 0.0867621 0
M  V30 3463 C 318.224 -1.53178 -0.739622 0
M  V30 3464 O 319.409 -1.81625 -0.687449 0
M  V30 3465 C 316.539 -3.37194 -0.831728 0
M  V30 3466 C 315.493 -4.27857 -0.110558 0
M  V30 3467 C 314.819 -5.22294 -1.14513 0
M  V30 3468 C 316.119 -5.11872 1.0385 0
M  V30 3469 H 317.813 -2.86626 0.865219 0
M  V30 3470 H 315.359 -1.37814 0.417516 0
M  V30 3471 H 317.312 -4.01335 -1.28485 0
M  V30 3472 H 316.036 -2.82314 -1.64214 0
M  V30 3473 H 314.695 -3.65176 0.322797 0
M  V30 3474 H 314.343 -4.63717 -1.94874 0
M  V30 3475 H 314.043 -5.83797 -0.667446 0
M  V30 3476 H 315.567 -5.89312 -1.59824 0
M  V30 3477 H 316.981 -5.69436 0.664482 0
M  V30 3478 H 315.378 -5.82445 1.4449 0
M  V30 3479 H 316.448 -4.4753 1.86668 0
M  V30 3480 N 317.792 -0.46758 -1.50504 0
M  V30 3481 C 319.041 0.0902868 -2.01498 0
M  V30 3482 C 319.354 1.411 -1.35463 0
M  V30 3483 O 320.56 2.0536 -1.77594 0
M  V30 3484 C 319.016 0.21142 -3.59278 0
M  V30 3485 C 318.624 -1.10065 -4.34269 0
M  V30 3486 C 320.368 0.721433 -4.18325 0
M  V30 3487 C 318.275 -0.943505 -5.83825 0
M  V30 3488 H 317.205 0.037517 -0.753066 0
M  V30 3489 H 319.856 -0.601943 -1.73346 0
M  V30 3490 H 318.238 0.967352 -3.84003 0
M  V30 3491 H 319.412 -1.86726 -4.21272 0
M  V30 3492 H 317.727 -1.5415 -3.86816 0
M  V30 3493 H 320.324 0.85598 -5.27804 0
M  V30 3494 H 320.667 1.71186 -3.79475 0
M  V30 3495 H 321.2 0.0229843 -3.97793 0
M  V30 3496 H 317.939 -1.90719 -6.27141 0
M  V30 3497 H 317.459 -0.217213 -5.99407 0
M  V30 3498 H 319.138 -0.608715 -6.4413 0
M  V30 3499 N 319.27 1.56325 -0.20005 0
M  V30 3500 C 320.233 2.18084 0.705132 0
M  V30 3501 C 321.233 1.13666 1.1374 0
M  V30 3502 O 322.423 1.39023 1.04968 0
M  V30 3503 C 319.555 2.78689 1.96329 0
M  V30 3504 H 320.748 2.99435 0.167023 0
M  V30 3505 H 318.301 1.56221 0.0495725 0
M  V30 3506 H 319.036 2.0115 2.5438 0
M  V30 3507 H 318.821 3.55133 1.66202 0
M  V30 3508 H 320.311 3.26096 2.60866 0
M  V30 3509 N 320.748 -0.0735177 1.57428 0
M  V30 3510 C 321.695 -1.08756 2.0357 0
M  V30 3511 C 322.665 -1.38559 0.916 0
M  V30 3512 O 323.85 -1.49656 1.18354 0
M  V30 3513 C 320.99 -2.39657 2.48311 0
M  V30 3514 C 320.103 -2.16399 3.73892 0
M  V30 3515 C 319.238 -3.40852 4.07423 0
M  V30 3516 C 318.277 -3.1295 5.2605 0
M  V30 3517 N 317.414 -4.29729 5.55228 0
M  V30 3518 H 322.254 -0.687104 2.8997 0
M  V30 3519 H 319.791 -0.327709 1.43403 0
M  V30 3520 H 321.749 -3.16081 2.72303 0
M  V30 3521 H 320.379 -2.77508 1.64891 0
M  V30 3522 H 319.431 -1.30676 3.57251 0
M  V30 3523 H 320.743 -1.91788 4.60455 0
M  V30 3524 H 319.897 -4.25671 4.32306 0
M  V30 3525 H 318.636 -3.68537 3.19425 0
M  V30 3526 H 317.641 -2.26526 5.00965 0
M  V30 3527 H 318.866 -2.86589 6.15665 0
M  V30 3528 H 316.812 -4.57448 4.70188 0
M  V30 3529 H 316.729 -4.08385 6.36206 0
M  V30 3530 H 317.997 -5.1555 5.84661 0
M  V30 3531 N 322.226 -1.5378 -0.344866 0
M  V30 3532 C 323.136 -1.84667 -1.4469 0
M  V30 3533 C 324.152 -0.736704 -1.57635 0
M  V30 3534 O 325.328 -1.02888 -1.73136 0
M  V30 3535 C 322.393 -2.04869 -2.79696 0
M  V30 3536 C 321.454 -3.28731 -2.76106 0
M  V30 3537 C 320.687 -3.4796 -4.04673 0
M  V30 3538 O 320.91 -2.71052 -5.01883 0
M  V30 3539 O 319.844 -4.41383 -4.09224 0
M  V30 3540 H 323.67 -2.78334 -1.21506 0
M  V30 3541 H 321.255 -1.39418 -0.536921 0
M  V30 3542 H 323.137 -2.19609 -3.59652 0
M  V30 3543 H 321.812 -1.14391 -3.02814 0
M  V30 3544 H 320.719 -3.19396 -1.94774 0
M  V30 3545 H 322.052 -4.19198 -2.57941 0
M  V30 3546 N 323.704 0.605807 -1.45491 0
M  V30 3547 C 324.636 1.73031 -1.5031 0
M  V30 3548 C 325.649 1.57968 -0.393687 0
M  V30 3549 O 326.838 1.65817 -0.660839 0
M  V30 3550 C 323.938 3.11049 -1.34543 0
M  V30 3551 C 323.111 3.52334 -2.59189 0
M  V30 3552 C 322.17 4.69323 -2.37954 0
M  V30 3553 O 321.196 4.7635 -3.11575 0
M  V30 3554 N 322.398 5.62705 -1.4263 0
M  V30 3555 H 325.163 1.6936 -2.4726 0
M  V30 3556 H 322.724 0.79114 -1.41254 0
M  V30 3557 H 324.716 3.87071 -1.18144 0
M  V30 3558 H 323.286 3.09217 -0.458623 0
M  V30 3559 H 322.506 2.66256 -2.90691 0
M  V30 3560 H 323.794 3.76677 -3.42041 0
M  V30 3561 H 323.192 5.59744 -0.818758 0
M  V30 3562 H 321.749 6.38252 -1.32202 0
M  V30 3563 N 325.182 1.32811 0.848464 0
M  V30 3564 C 326.145 1.22194 1.9391 0
M  V30 3565 C 327.145 0.143404 1.60159 0
M  V30 3566 O 328.335 0.394253 1.6968 0
M  V30 3567 C 325.467 0.88067 3.29328 0
M  V30 3568 H 326.66 2.19127 2.04752 0
M  V30 3569 H 324.213 1.16731 1.0394 0
M  V30 3570 H 324.948 -0.0865776 3.24184 0
M  V30 3571 H 324.733 1.66052 3.55203 0
M  V30 3572 H 326.223 0.830871 4.09251 0
M  V30 3573 N 326.66 -1.06551 1.16123 0
M  V30 3574 C 328.076 -1.3142 0.905585 0
M  V30 3575 C 328.276 -1.96571 -0.442964 0
M  V30 3576 O 327.332 -2.23068 -1.18308 0
M  V30 3577 C 328.645 -2.19741 2.05267 0
M  V30 3578 C 330.193 -2.33165 2.08813 0
M  V30 3579 C 330.668 -3.24838 3.22868 0
M  V30 3580 N 332.159 -3.32421 3.22568 0
M  V30 3581 C 332.894 -4.0344 4.0746 0
M  V30 3582 N 332.39 -4.77003 5.02434 0
M  V30 3583 N 334.183 -3.99464 3.95456 0
M  V30 3584 H 326.334 -0.626548 2.02949 0
M  V30 3585 H 328.597 -0.338777 0.8854 0
M  V30 3586 H 328.303 -1.79142 3.02657 0
M  V30 3587 H 328.177 -3.20313 1.99198 0
M  V30 3588 H 330.564 -2.73013 1.12018 0
M  V30 3589 H 330.645 -1.3227 2.18948 0
M  V30 3590 H 330.289 -2.85708 4.19921 0
M  V30 3591 H 330.219 -4.25707 3.0997 0
M  V30 3592 H 332.71 -2.79994 2.53795 0
M  V30 3593 H 333.023 -5.28712 5.63634 0
M  V30 3594 H 331.368 -4.75992 5.06415 0
M  V30 3595 H 334.559 -3.4111 3.20564 0
M  V30 3596 H 334.732 -4.54544 4.61837 0
M  V30 3597 N 328.138 -0.959301 -1.25041 0
M  V30 3598 C 329.068 -0.501388 -2.28053 0
M  V30 3599 C 330.049 0.454673 -1.63911 0
M  V30 3600 O 331.234 0.352618 -1.90972 0
M  V30 3601 C 328.364 0.217224 -3.4662 0
M  V30 3602 C 327.318 -0.654034 -4.22973 0
M  V30 3603 C 326.644 0.195589 -5.34342 0
M  V30 3604 C 327.944 -1.93447 -4.85155 0
M  V30 3605 H 329.638 -1.36238 -2.66608 0
M  V30 3606 H 327.184 -0.656534 -1.28163 0
M  V30 3607 H 329.137 0.548732 -4.17812 0
M  V30 3608 H 327.861 1.1125 -3.07068 0
M  V30 3609 H 326.52 -0.968693 -3.5357 0
M  V30 3610 H 326.168 1.09076 -4.91031 0
M  V30 3611 H 325.868 -0.384091 -5.86343 0
M  V30 3612 H 327.392 0.521958 -6.08365 0
M  V30 3613 H 328.806 -1.66908 -5.48466 0
M  V30 3614 H 327.203 -2.46018 -5.47353 0
M  V30 3615 H 328.273 -2.63466 -4.07079 0
M  V30 3616 N 329.616 1.39756 -0.72842 0
M  V30 3617 C 330.865 1.99879 -0.270407 0
M  V30 3618 C 331.178 1.58449 1.14688 0
M  V30 3619 O 332.384 2.11362 1.70407 0
M  V30 3620 C 330.84 3.57292 -0.43252 0
M  V30 3621 C 330.448 4.07688 -1.85727 0
M  V30 3622 C 332.192 4.24485 -0.0359507 0
M  V30 3623 C 330.099 5.5765 -1.96928 0
M  V30 3624 H 329.029 0.747689 -0.0973472 0
M  V30 3625 H 331.68 1.59837 -0.901355 0
M  V30 3626 H 330.062 3.95097 0.267219 0
M  V30 3627 H 331.236 3.81231 -2.58843 0
M  V30 3628 H 329.551 3.53135 -2.20646 0
M  V30 3629 H 332.148 5.34609 -0.0987484 0
M  V30 3630 H 332.491 4.03915 1.00787 0
M  V30 3631 H 333.024 3.9183 -0.686604 0
M  V30 3632 H 329.763 5.8309 -2.99476 0
M  V30 3633 H 329.283 5.8593 -1.28241 0
M  V30 3634 H 330.962 6.22957 -1.74737 0
M  V30 3635 N 331.094 0.475555 1.50254 0
M  V30 3636 C 332.319 -0.0777042 2.07254 0
M  V30 3637 C 332.744 -1.3235 1.3366 0
M  V30 3638 O 332.102 -1.77152 0.385597 0
M  V30 3639 C 332.15 -0.340169 3.58992 0
M  V30 3640 O 331.254 -1.41982 3.87188 0
M  V30 3641 H 330.595 0.0149556 0.663832 0
M  V30 3642 H 333.125 0.667878 1.93392 0
M  V30 3643 H 333.135 -0.579332 4.03866 0
M  V30 3644 H 331.81 0.570167 4.11973 0
M  V30 3645 H 330.387 -1.16762 3.54148 0
M  V30 3646 N 332.573 -1.56217 0.208337 0
M  V30 3647 C 333.85 -1.89739 -0.475234 0
M  V30 3648 C 334.23 -1.1238 -1.78701 0
M  V30 3649 O 333.578 -0.228979 -2.2735 0
M  V30 3650 C 333.788 -3.42289 -0.681101 0
M  V30 3651 C 335.136 -4.12789 -0.994507 0
M  V30 3652 O 336.16 -3.47814 -0.768357 0
M  V30 3653 O 335.019 -5.27649 -1.42299 0
M  V30 3654 H 332.113 -0.788478 -0.249461 0
M  V30 3655 H 334.659 -1.67855 0.249538 0
M  V30 3656 H 333.431 -3.90534 0.244722 0
M  V30 3657 H 333.054 -3.69909 -1.45785 0
M  V30 3658 N 334.051 0.0651679 -1.57465 0
M  V30 3659 C 335.014 1.06117 -2.03155 0
M  V30 3660 C 336.014 1.31204 -0.929632 0
M  V30 3661 O 337.204 1.26813 -1.19432 0
M  V30 3662 C 334.336 2.4032 -2.41783 0
M  V30 3663 H 335.529 0.667231 -2.92383 0
M  V30 3664 H 333.082 0.311075 -1.53173 0
M  V30 3665 H 333.817 2.84532 -1.55601 0
M  V30 3666 H 333.602 2.23451 -3.22199 0
M  V30 3667 H 335.092 3.11898 -2.77685 0
M  V30 3668 N 335.529 1.53961 0.336706 0
M  V30 3669 C 336.477 1.83136 1.43401 0
M  V30 3670 C 337.471 0.702313 1.54156 0
M  V30 3671 O 338.677 0.885765 1.56698 0
M  V30 3672 H 335.052 0.580309 0.478273 0
M  V30 3673 H 337.023 2.74925 1.16012 0
M  V30 3674 C 335.772 2.06385 2.79822 0
M  V30 3675 H 335.095 2.92718 2.72316 0
M  V30 3676 H 336.535 2.30761 3.55704 0
M  V30 3677 C 334.994 0.851414 3.25964 0
M  V30 3678 O 335.524 0.0541904 4.01663 0
M  V30 3679 N 333.73 0.66672 2.82848 0
M  V30 3680 H 333.277 1.31665 2.21409 0
M  V30 3681 H 333.235 -0.143032 3.14074 0
M  V30 3682 N 337.007 -0.598083 1.45811 0
M  V30 3683 C 337.939 -1.72231 1.51225 0
M  V30 3684 C 338.952 -1.57757 0.402059 0
M  V30 3685 O 340.141 -1.65464 0.669624 0
M  V30 3686 C 337.241 -3.10331 1.3619 0
M  V30 3687 C 336.414 -3.50955 2.61054 0
M  V30 3688 C 335.473 -4.68055 2.40439 0
M  V30 3689 O 334.499 -4.74691 3.14097 0
M  V30 3690 N 335.701 -5.61941 1.45612 0
M  V30 3691 H 338.466 -1.68046 2.48154 0
M  V30 3692 H 336.027 -0.783637 1.41671 0
M  V30 3693 H 338.019 -3.86439 1.20195 0
M  V30 3694 H 336.589 -3.0897 0.475015 0
M  V30 3695 H 335.809 -2.64711 2.92099 0
M  V30 3696 H 337.097 -3.74858 3.44034 0
M  V30 3697 H 336.495 -5.59301 0.848431 0
M  V30 3698 H 335.052 -6.37542 1.35585 0
M  V30 3699 N 338.485 -1.33259 -0.841409 0
M  V30 3700 C 339.432 -1.23302 -1.95103 0
M  V30 3701 C 340.402 -0.112204 -1.65721 0
M  V30 3702 O 341.587 -0.290038 -1.88583 0
M  V30 3703 C 338.727 -0.975583 -3.31023 0
M  V30 3704 C 337.84 -2.18243 -3.72819 0
M  V30 3705 C 336.975 -1.85936 -4.97595 0
M  V30 3706 C 336.014 -3.02866 -5.3192 0
M  V30 3707 N 335.151 -2.70565 -6.47873 0
M  V30 3708 H 339.991 -2.18207 -2.02952 0
M  V30 3709 H 337.528 -1.0851 -0.993173 0
M  V30 3710 H 339.486 -0.80677 -4.09325 0
M  V30 3711 H 338.116 -0.0632755 -3.22738 0
M  V30 3712 H 337.168 -2.46107 -2.90061 0
M  V30 3713 H 338.48 -3.05666 -3.94169 0
M  V30 3714 H 337.634 -1.65684 -5.83638 0
M  V30 3715 H 336.373 -0.957452 -4.78209 0
M  V30 3716 H 335.378 -3.23736 -4.44382 0
M  V30 3717 H 336.603 -3.93809 -5.53255 0
M  V30 3718 H 334.549 -1.8293 -6.29978 0
M  V30 3719 H 334.466 -3.51519 -6.69306 0
M  V30 3720 H 335.734 -2.53774 -7.37034 0
M  V30 3721 N 339.963 1.05934 -1.16686 0
M  V30 3722 C 340.893 2.1546 -0.899949 0
M  V30 3723 C 341.874 1.69391 0.155154 0
M  V30 3724 O 343.059 1.94199 0.00648693 0
M  V30 3725 C 340.189 3.44939 -0.404241 0
M  V30 3726 C 339.143 4.04536 -1.39767 0
M  V30 3727 C 338.469 5.29268 -0.760216 0
M  V30 3728 C 339.769 4.42893 -2.76845 0
M  V30 3729 H 341.463 2.38046 -1.81588 0
M  V30 3730 H 339.009 1.14404 -0.874514 0
M  V30 3731 H 340.962 4.20901 -0.204971 0
M  V30 3732 H 339.686 3.21983 0.547206 0
M  V30 3733 H 338.345 3.30635 -1.58355 0
M  V30 3734 H 337.993 5.02611 0.197831 0
M  V30 3735 H 337.693 5.70101 -1.42332 0
M  V30 3736 H 339.217 6.07924 -0.57105 0
M  V30 3737 H 340.631 5.09921 -2.62019 0
M  V30 3738 H 339.028 4.94721 -3.39663 0
M  V30 3739 H 340.098 3.53584 -3.31823 0
M  V30 3740 N 341.441 0.965919 1.2453 0
M  V30 3741 C 342.373 0.452465 2.2469 0
M  V30 3742 C 343.386 -0.437821 1.56802 0
M  V30 3743 O 344.575 -0.244283 1.76821 0
M  V30 3744 C 341.675 -0.366258 3.36915 0
M  V30 3745 C 340.848 0.513701 4.34373 0
M  V30 3746 C 339.907 -0.248716 5.25612 0
M  V30 3747 O 338.933 0.356745 5.68081 0
M  V30 3748 N 340.135 -1.53877 5.59734 0
M  V30 3749 H 342.9 1.31361 2.69378 0
M  V30 3750 H 340.461 0.837541 1.38553 0
M  V30 3751 H 342.453 -0.884297 3.94921 0
M  V30 3752 H 341.023 -1.12832 2.91526 0
M  V30 3753 H 340.243 1.21273 3.75082 0
M  V30 3754 H 341.531 1.11391 4.96457 0
M  V30 3755 H 340.929 -2.05243 5.27154 0
M  V30 3756 H 339.486 -2.00254 6.20275 0
M  V30 3757 N 342.919 -1.39368 0.735821 0
M  V30 3758 C 344.168 -1.99733 0.281004 0
M  V30 3759 C 344.481 -1.59055 -1.13846 0
M  V30 3760 O 345.687 -2.12262 -1.69284 0
M  V30 3761 C 344.143 -3.57057 0.451462 0
M  V30 3762 C 343.751 -4.06697 1.87886 0
M  V30 3763 C 345.495 -4.2446 0.0584616 0
M  V30 3764 C 343.402 -5.56598 1.99883 0
M  V30 3765 H 342.332 -0.747163 0.101311 0
M  V30 3766 H 344.983 -1.59357 0.909819 0
M  V30 3767 H 343.365 -3.95234 -0.246263 0
M  V30 3768 H 344.539 -3.79853 2.60861 0
M  V30 3769 H 342.854 -3.5196 2.22515 0
M  V30 3770 H 345.451 -5.34549 0.127099 0
M  V30 3771 H 345.794 -4.04444 -0.986433 0
M  V30 3772 H 346.327 -3.9146 0.707374 0
M  V30 3773 H 343.066 -5.81494 3.02564 0
M  V30 3774 H 342.586 -5.85242 1.31346 0
M  V30 3775 H 344.265 -6.22022 1.78039 0
M  V30 3776 N 344.397 -0.483516 -1.5 0
M  V30 3777 C 345.645 0.067027 -2.01989 0
M  V30 3778 C 345.966 1.3909 -1.36671 0
M  V30 3779 O 345.236 1.88978 -0.516152 0
M  V30 3780 H 343.816 0.0277606 -0.746484 0
M  V30 3781 H 346.478 -0.636773 -1.84204 0
M  V30 3782 H 345.574 0.209484 -3.11396 0
M  V30 3783 N 345.875 1.56104 -0.216619 0
M  V30 3784 C 346.805 2.23063 0.690296 0
M  V30 3785 C 347.786 1.20072 1.20485 0
M  V30 3786 O 348.971 1.48643 1.24976 0
M  V30 3787 C 346.101 2.90672 1.90072 0
M  V30 3788 C 345.055 4.00092 1.5202 0
M  V30 3789 C 344.381 4.54972 2.80899 0
M  V30 3790 C 345.681 5.17398 0.71391 0
M  V30 3791 H 347.375 2.99109 0.132038 0
M  V30 3792 H 344.921 1.43866 0.0620664 0
M  V30 3793 H 346.874 3.36204 2.54057 0
M  V30 3794 H 345.598 2.12066 2.48386 0
M  V30 3795 H 344.257 3.55283 0.903839 0
M  V30 3796 H 343.905 3.73102 3.37348 0
M  V30 3797 H 343.605 5.28817 2.56176 0
M  V30 3798 H 345.129 5.0322 3.45836 0
M  V30 3799 H 346.543 5.59342 1.25735 0
M  V30 3800 H 344.94 5.97444 0.563951 0
M  V30 3801 H 346.01 4.84088 -0.280527 0
M  V30 3802 N 347.353 -0.0568162 1.57498 0
M  V30 3803 C 348.263 -1.08346 2.08083 0
M  V30 3804 C 349.279 -1.41439 1.01346 0
M  V30 3805 O 350.455 -1.51316 1.32912 0
M  V30 3806 C 347.52 -2.37352 2.52715 0
M  V30 3807 C 346.581 -2.11093 3.73816 0
M  V30 3808 C 345.814 -3.33949 4.1631 0
M  V30 3809 O 346.037 -4.43622 3.58547 0
M  V30 3810 O 344.971 -3.21279 5.08983 0
M  V30 3811 H 348.797 -0.683667 2.95905 0
M  V30 3812 H 346.382 -0.271965 1.46904 0
M  V30 3813 H 348.264 -3.13246 2.81877 0
M  V30 3814 H 346.939 -2.76681 1.68016 0
M  V30 3815 H 345.846 -1.32856 3.49714 0
M  V30 3816 H 347.179 -1.76637 4.59413 0
M  V30 3817 N 348.832 -1.54138 -0.328536 0
M  V30 3818 C 349.765 -1.78014 -1.4278 0
M  V30 3819 C 350.743 -0.629889 -1.49904 0
M  V30 3820 O 351.927 -0.866763 -1.6739 0
M  V30 3821 C 349.054 -1.89225 -2.80912 0
M  V30 3822 C 348.1 -3.11483 -2.91343 0
M  V30 3823 S 348.933 -4.70201 -2.56263 0
M  V30 3824 C 350.089 -4.84312 -3.96476 0
M  V30 3825 H 350.322 -2.70974 -1.22313 0
M  V30 3826 H 347.855 -1.45197 -0.525084 0
M  V30 3827 H 349.813 -1.9637 -3.60485 0
M  V30 3828 H 348.474 -0.972518 -2.98665 0
M  V30 3829 H 347.667 -3.16046 -3.92595 0
M  V30 3830 H 347.269 -3.02642 -2.19736 0
M  V30 3831 H 349.561 -4.66643 -4.91173 0
M  V30 3832 H 350.504 -5.86411 -3.96898 0
M  V30 3833 H 350.912 -4.12652 -3.85199 0
M  V30 3834 N 350.31 0.590341 -1.46126 0
M  V30 3835 C 351.257 1.69994 -1.56111 0
M  V30 3836 C 352.227 1.61065 -0.405867 0
M  V30 3837 O 353.412 1.8039 -0.621613 0
M  V30 3838 C 350.552 3.08326 -1.55013 0
M  V30 3839 C 349.665 3.27936 -2.81215 0
M  V30 3840 C 348.8 4.56473 -2.71673 0
M  V30 3841 C 347.839 4.694 -3.92849 0
M  V30 3842 N 346.976 5.89254 -3.81738 0
M  V30 3843 H 351.816 1.60797 -2.50895 0
M  V30 3844 H 349.353 0.783799 -1.24479 0
M  V30 3845 H 351.311 3.88383 -1.52362 0
M  V30 3846 H 349.941 3.16439 -0.637667 0
M  V30 3847 H 348.993 2.41536 -2.93879 0
M  V30 3848 H 350.305 3.33357 -3.71045 0
M  V30 3849 H 349.459 5.44748 -2.67085 0
M  V30 3850 H 348.198 4.53477 -1.7947 0
M  V30 3851 H 347.203 3.79544 -3.97777 0
M  V30 3852 H 348.428 4.7418 -4.86138 0
M  V30 3853 H 346.374 5.87271 -2.92317 0
M  V30 3854 H 346.291 5.95911 -4.65217 0
M  V30 3855 H 347.559 6.79981 -3.81112 0
M  V30 3856 N 351.788 1.33704 0.83433 0
M  V30 3857 C 352.736 1.24323 1.96587 0
M  V30 3858 C 353.73 0.143659 1.6879 0
M  V30 3859 O 354.936 0.30791 1.77347 0
M  V30 3860 H 351.311 0.385925 0.645419 0
M  V30 3861 H 353.282 2.19978 2.01624 0
M  V30 3862 C 352.031 1.00394 3.32891 0
M  V30 3863 H 351.354 1.84231 3.54822 0
M  V30 3864 H 352.794 0.97862 4.12552 0
M  V30 3865 C 351.253 -0.293047 3.35623 0
M  V30 3866 O 351.783 -1.29823 3.80143 0
M  V30 3867 N 349.989 -0.322174 2.88809 0
M  V30 3868 H 349.536 0.496379 2.52772 0
M  V30 3869 H 349.494 -1.18977 2.91019 0
M  V30 3870 N 353.266 -1.05314 1.17247 0
M  V30 3871 C 354.514 -1.77941 0.958194 0
M  V30 3872 C 354.835 -1.88089 -0.514556 0
M  V30 3873 O 354.105 -1.39676 -1.37359 0
M  V30 3874 H 352.685 -0.659116 0.351533 0
M  V30 3875 H 355.347 -1.27166 1.47699 0
M  V30 3876 H 354.443 -2.79663 1.38546 0
M  V30 3877 N 354.744 -0.972509 -1.24016 0
M  V30 3878 C 355.993 -0.632603 -1.91523 0
M  V30 3879 C 356.306 0.836641 -1.76804 0
M  V30 3880 O 357.512 1.28728 -2.39043 0
M  V30 3881 C 355.968 -1.08082 -3.43287 0
M  V30 3882 C 355.576 -2.57386 -3.66683 0
M  V30 3883 C 357.32 -0.814288 -4.16617 0
M  V30 3884 C 355.227 -2.95915 -5.12043 0
M  V30 3885 H 354.157 -0.232898 -0.717129 0
M  V30 3886 H 356.808 -1.17936 -1.40582 0
M  V30 3887 H 355.19 -0.462339 -3.93292 0
M  V30 3888 H 356.364 -3.24405 -3.27258 0
M  V30 3889 H 354.679 -2.81701 -3.06649 0
M  V30 3890 H 357.276 -1.0781 -5.23718 0
M  V30 3891 H 357.619 0.24955 -4.15551 0
M  V30 3892 H 358.152 -1.39397 -3.72577 0
M  V30 3893 H 354.891 -4.0139 -5.18234 0
M  V30 3894 H 354.411 -2.33584 -5.52448 0
M  V30 3895 H 356.09 -2.86086 -5.80314 0
M  V30 3896 N 356.222 1.38976 -0.743202 0
M  V30 3897 C 357.447 2.05161 -0.303936 0
M  V30 3898 C 357.872 1.55677 1.05576 0
M  V30 3899 O 357.23 0.704131 1.67068 0
M  V30 3900 C 357.278 3.59138 -0.324373 0
M  V30 3901 O 356.382 4.06668 0.685204 0
M  V30 3902 H 355.723 0.649815 -0.136518 0
M  V30 3903 H 358.253 1.77852 -1.01142 0
M  V30 3904 H 358.263 4.07639 -0.171618 0
M  V30 3905 H 356.938 3.94515 -1.31647 0
M  V30 3906 H 355.515 3.69561 0.497913 0
M  V30 3907 N 357.7 0.491464 1.49741 0
M  V30 3908 C 358.632 -0.328609 2.26832 0
M  V30 3909 C 359.645 -0.939113 1.32983 0
M  V30 3910 O 360.834 -0.824067 1.58339 0
M  V30 3911 C 357.934 -1.47675 3.05033 0
M  V30 3912 C 357.107 -0.975305 4.26388 0
M  V30 3913 C 356.166 -1.99991 4.86714 0
M  V30 3914 O 355.192 -1.57229 5.47054 0
M  V30 3915 N 356.394 -3.32962 4.75517 0
M  V30 3916 H 359.159 0.332377 2.97851 0
M  V30 3917 H 356.72 0.323441 1.58636 0
M  V30 3918 H 358.712 -2.15954 3.42266 0
M  V30 3919 H 357.282 -2.04206 2.36683 0
M  V30 3920 H 356.502 -0.117723 3.94024 0
M  V30 3921 H 357.79 -0.618531 5.05026 0
M  V30 3922 H 357.188 -3.70399 4.27576 0
M  V30 3923 H 355.745 -3.96982 5.16961 0
M  V30 3924 N 359.178 -1.55987 0.224894 0
M  V30 3925 C 360.403 -2.03232 -0.41369 0
M  V30 3926 C 360.828 -1.10359 -1.52323 0
M  V30 3927 O 360.186 -0.092395 -1.81064 0
M  V30 3928 C 360.234 -3.48682 -0.919405 0
M  V30 3929 O 359.338 -3.58947 -2.03054 0
M  V30 3930 H 358.679 -0.657428 -0.0931903 0
M  V30 3931 H 361.209 -2.01679 0.34451 0
M  V30 3932 H 361.219 -3.8907 -1.22835 0
M  V30 3933 H 359.894 -4.15761 -0.107339 0
M  V30 3934 H 358.471 -3.30448 -1.72796 0
M  V30 3935 N 360.656 0.0484629 -1.57525 0
M  V30 3936 C 361.603 1.05504 -2.05275 0
M  V30 3937 C 362.573 1.37084 -0.937927 0
M  V30 3938 O 363.758 1.47754 -1.2072 0
M  V30 3939 C 360.898 2.35676 -2.52093 0
M  V30 3940 C 360.011 2.10423 -3.77288 0
M  V30 3941 C 359.146 3.34327 -4.12794 0
M  V30 3942 C 358.185 3.04542 -5.30962 0
M  V30 3943 N 357.322 4.20841 -5.61994 0
M  V30 3944 H 362.162 0.640885 -2.91027 0
M  V30 3945 H 359.699 0.304854 -1.43906 0
M  V30 3946 H 361.657 3.11709 -2.77297 0
M  V30 3947 H 360.287 2.7485 -1.69285 0
M  V30 3948 H 359.339 1.24976 -3.59284 0
M  V30 3949 H 360.651 1.84438 -4.63448 0
M  V30 3950 H 359.805 4.1874 -4.39024 0
M  V30 3951 H 358.544 3.63408 -3.25247 0
M  V30 3952 H 357.549 2.18528 -5.04505 0
M  V30 3953 H 358.774 2.76758 -6.20146 0
M  V30 3954 H 356.72 4.4991 -4.77406 0
M  V30 3955 H 356.637 3.98212 -6.42622 0
M  V30 3956 H 357.905 5.06184 -5.92789 0
M  V30 3957 N 362.134 1.5431 0.320358 0
M  V30 3958 C 363.044 1.86946 1.41734 0
M  V30 3959 C 364.06 0.761689 1.56443 0
M  V30 3960 O 365.236 1.05629 1.71477 0
M  V30 3961 C 362.301 2.09293 2.76401 0
M  V30 3962 C 361.362 3.33082 2.70841 0
M  V30 3963 C 360.595 3.54353 3.99086 0
M  V30 3964 O 360.818 2.79002 4.97508 0
M  V30 3965 O 359.752 4.47838 4.0215 0
M  V30 3966 H 363.578 2.80232 1.17062 0
M  V30 3967 H 361.163 1.40255 0.514673 0
M  V30 3968 H 363.045 2.25303 3.56113 0
M  V30 3969 H 361.72 1.19194 3.00956 0
M  V30 3970 H 360.627 3.22454 1.89668 0
M  V30 3971 H 361.96 4.23249 2.5124 0
M  V30 3972 N 363.613 -0.582584 1.46437 0
M  V30 3973 C 365.029 -0.905962 1.31394 0
M  V30 3974 C 365.229 -1.99468 0.285476 0
M  V30 3975 O 364.285 -2.50566 -0.311914 0
M  V30 3976 C 365.598 -1.3232 2.70022 0
M  V30 3977 C 367.146 -1.43604 2.78113 0
M  V30 3978 C 367.621 -1.88694 4.17323 0
M  V30 3979 N 369.112 -1.95887 4.19741 0
M  V30 3980 C 369.847 -2.32051 5.24347 0
M  V30 3981 N 369.343 -2.67006 6.39281 0
M  V30 3982 N 371.136 -2.32606 5.11713 0
M  V30 3983 H 363.287 0.1366 2.1196 0
M  V30 3984 H 365.55 -0.00155736 0.947999 0
M  V30 3985 H 365.256 -0.597242 3.46592 0
M  V30 3986 H 365.13 -2.28469 3.00136 0
M  V30 3987 H 367.517 -2.15286 2.01832 0
M  V30 3988 H 367.598 -0.457059 2.51684 0
M  V30 3989 H 367.242 -1.1759 4.941 0
M  V30 3990 H 367.172 -2.8755 4.4116 0
M  V30 3991 H 369.663 -1.71362 3.36814 0
M  V30 3992 H 369.976 -2.93554 7.14875 0
M  V30 3993 H 368.321 -2.64644 6.42642 0
M  V30 3994 H 371.512 -2.04721 4.2096 0
M  V30 3995 H 371.685 -2.60462 5.93349 0
M  V30 3996 N 365.091 -1.34144 -0.827227 0
M  V30 3997 C 366.038 -1.25364 -1.93785 0
M  V30 3998 C 367.008 -0.129774 -1.65592 0
M  V30 3999 O 368.193 -0.310024 -1.88264 0
M  V30 4000 C 365.333 -1.01064 -3.2997 0
M  V30 4001 C 364.446 -2.22185 -3.70484 0
M  V30 4002 C 363.581 -1.91203 -4.95595 0
M  V30 4003 C 362.62 -3.08491 -5.28677 0
M  V30 4004 N 361.757 -2.77421 -6.44967 0
M  V30 4005 H 366.597 -2.20347 -2.00627 0
M  V30 4006 H 364.134 -1.09558 -0.981608 0
M  V30 4007 H 366.092 -0.850139 -4.08446 0
M  V30 4008 H 364.722 -0.0975026 -3.22653 0
M  V30 4009 H 363.774 -2.4917 -2.87434 0
M  V30 4010 H 365.086 -3.0983 -3.90905 0
M  V30 4011 H 364.24 -1.71864 -5.81848 0
M  V30 4012 H 362.979 -1.00812 -4.77167 0
M  V30 4013 H 361.984 -3.28431 -4.40923 0
M  V30 4014 H 363.209 -3.99655 -5.49047 0
M  V30 4015 H 361.155 -1.89601 -6.28003 0
M  V30 4016 H 361.072 -3.58598 -6.6554 0
M  V30 4017 H 362.34 -2.61577 -7.34301 0
M  V30 4018 N 366.569 1.04691 -1.17803 0
M  V30 4019 C 367.532 2.10724 -0.901545 0
M  V30 4020 C 368.532 1.6042 0.110437 0
M  V30 4021 O 369.722 1.7377 -0.122303 0
M  V30 4022 C 366.854 3.39084 -0.351409 0
M  V30 4023 H 368.047 2.36686 -1.84174 0
M  V30 4024 H 365.6 1.21015 -0.98919 0
M  V30 4025 H 366.335 3.18782 0.59569 0
M  V30 4026 H 366.12 3.76909 -1.08083 0
M  V30 4027 H 367.61 4.17227 -0.176451 0
M  V30 4028 N 368.047 0.979072 1.23499 0
M  V30 4029 C 369.293 0.648178 1.92163 0
M  V30 4030 C 369.626 -0.816049 1.76222 0
M  V30 4031 O 368.901 -1.58849 1.12237 0
M  V30 4032 C 369.184 1.03773 3.44824 0
M  V30 4033 C 369.037 2.55948 3.69879 0
M  V30 4034 C 370.356 0.580653 4.36253 0
M  V30 4035 H 367.475 0.236952 0.69787 0
M  V30 4036 H 370.117 1.22012 1.45647 0
M  V30 4037 H 368.267 0.551058 3.84572 0
M  V30 4038 H 369.939 3.12179 3.3962 0
M  V30 4039 H 368.182 2.98641 3.14636 0
M  V30 4040 H 368.853 2.78255 4.76737 0
M  V30 4041 H 371.329 0.998465 4.03943 0
M  V30 4042 H 370.205 0.881663 5.41773 0
M  V30 4043 H 370.466 -0.519052 4.39042 0
M  V30 4044 N 369.525 -1.3858 0.750561 0
M  V30 4045 C 370.472 -2.30483 0.120835 0
M  V30 4046 C 371.442 -1.50022 -0.712923 0
M  V30 4047 O 372.627 -1.78662 -0.669676 0
M  V30 4048 C 369.767 -3.36431 -0.768666 0
M  V30 4049 C 368.88 -4.31927 0.0793922 0
M  V30 4050 C 368.015 -5.24944 -0.81283 0
M  V30 4051 C 367.054 -6.12088 0.0390447 0
M  V30 4052 N 366.191 -6.97412 -0.809969 0
M  V30 4053 H 371.031 -2.83761 0.91015 0
M  V30 4054 H 368.568 -1.39707 0.460463 0
M  V30 4055 H 370.526 -3.96462 -1.29898 0
M  V30 4056 H 369.156 -2.8457 -1.5238 0
M  V30 4057 H 368.208 -3.73382 0.727303 0
M  V30 4058 H 369.52 -4.93319 0.737401 0
M  V30 4059 H 368.674 -5.90078 -1.41042 0
M  V30 4060 H 367.413 -4.63911 -1.50458 0
M  V30 4061 H 366.418 -5.45952 0.649328 0
M  V30 4062 H 367.643 -6.75189 0.727809 0
M  V30 4063 H 365.589 -6.38931 -1.48672 0
M  V30 4064 H 365.506 -7.55712 -0.208789 0
M  V30 4065 H 366.774 -7.66959 -1.39263 0
M  V30 4066 N 371.003 -0.499398 -1.49478 0
M  V30 4067 C 372.231 0.0425456 -2.06856 0
M  V30 4068 C 372.646 1.30964 -1.35992 0
M  V30 4069 O 372.003 1.77172 -0.437762 0
M  V30 4070 C 372.054 0.301735 -3.60239 0
M  V30 4071 O 371.775 -0.915127 -4.28436 0
M  V30 4072 C 373.276 0.887499 -4.34325 0
M  V30 4073 H 370.496 -0.0197482 -0.670709 0
M  V30 4074 H 373.04 -0.696297 -1.92281 0
M  V30 4075 H 371.195 0.990556 -3.74522 0
M  V30 4076 H 371.609 -0.676993 -5.20113 0
M  V30 4077 H 373.083 1.01845 -5.42523 0
M  V30 4078 H 373.56 1.88488 -3.96698 0
M  V30 4079 H 374.166 0.236196 -4.24644 0
M  V30 4080 N 372.481 1.55866 -0.233164 0
M  V30 4081 C 373.411 2.23783 0.666599 0
M  V30 4082 C 374.392 1.21343 1.19205 0
M  V30 4083 O 375.577 1.4996 1.23392 0
M  V30 4084 C 372.707 2.92671 1.86978 0
M  V30 4085 C 371.661 4.01682 1.47768 0
M  V30 4086 C 370.987 4.57926 2.76058 0
M  V30 4087 C 372.287 5.18126 0.658993 0
M  V30 4088 H 373.981 2.99232 0.100306 0
M  V30 4089 H 371.527 1.43924 0.046804 0
M  V30 4090 H 373.48 3.3888 2.50476 0
M  V30 4091 H 372.204 2.14688 2.46123 0
M  V30 4092 H 370.863 3.56222 0.866106 0
M  V30 4093 H 370.511 3.76659 3.33372 0
M  V30 4094 H 370.211 5.31505 2.50552 0
M  V30 4095 H 371.735 5.06859 3.40479 0
M  V30 4096 H 373.149 5.60644 1.19795 0
M  V30 4097 H 371.546 5.98009 0.500552 0
M  V30 4098 H 372.616 4.83763 -0.331856 0
M  V30 4099 N 373.959 -0.0401083 1.57549 0
M  V30 4100 C 375.207 -0.731677 1.8839 0
M  V30 4101 C 375.528 -1.76481 0.829425 0
M  V30 4102 O 374.798 -1.95411 -0.1383 0
M  V30 4103 H 373.378 -0.273225 0.695239 0
M  V30 4104 H 376.04 -0.00867725 1.94898 0
M  V30 4105 H 375.136 -1.22816 2.86919 0
M  V30 4106 N 375.437 -1.54477 -0.31217 0
M  V30 4107 C 376.686 -1.72438 -1.04633 0
M  V30 4108 C 376.999 -0.511163 -1.88803 0
M  V30 4109 O 378.205 -0.572341 -2.65399 0
M  V30 4110 C 376.661 -3.05043 -1.9099 0
M  V30 4111 C 376.269 -4.33806 -1.11877 0
M  V30 4112 C 378.013 -3.32364 -2.64073 0
M  V30 4113 C 375.92 -5.57467 -1.97445 0
M  V30 4114 H 374.85 -0.642647 -0.394361 0
M  V30 4115 H 377.501 -1.80966 -0.303929 0
M  V30 4116 H 375.883 -2.90451 -2.69173 0
M  V30 4117 H 377.057 -4.59199 -0.383843 0
M  V30 4118 H 375.372 -4.13336 -0.504252 0
M  V30 4119 H 377.969 -4.21951 -3.28423 0
M  V30 4120 H 378.312 -2.50745 -3.32314 0
M  V30 4121 H 378.845 -3.47875 -1.92944 0
M  V30 4122 H 375.584 -6.41722 -1.33692 0
M  V30 4123 H 375.104 -5.36277 -2.6864 0
M  V30 4124 H 376.783 -5.94303 -2.5576 0
M  V30 4125 N 376.915 0.57481 -1.46744 0
M  V30 4126 C 378.161 1.3347 -1.52688 0
M  V30 4127 C 378.494 1.93353 -0.181229 0
M  V30 4128 O 377.769 1.76912 0.808237 0
M  V30 4129 C 378.052 2.45811 -2.63152 0
M  V30 4130 C 377.905 1.90912 -4.07275 0
M  V30 4131 C 379.224 3.47822 -2.69644 0
M  V30 4132 H 376.343 0.483935 -0.555856 0
M  V30 4133 H 378.985 0.644968 -1.78718 0
M  V30 4134 H 377.135 3.04646 -2.41088 0
M  V30 4135 H 378.807 1.36473 -4.4065 0
M  V30 4136 H 377.05 1.21691 -4.16382 0
M  V30 4137 H 377.721 2.72042 -4.80309 0
M  V30 4138 H 380.197 2.9888 -2.895 0
M  V30 4139 H 379.073 4.23876 -3.48742 0
M  V30 4140 H 379.334 4.05555 -1.76005 0
M  V30 4141 N 378.394 1.34581 0.820102 0
M  V30 4142 C 379.327 1.20735 1.93644 0
M  V30 4143 C 380.305 0.0983343 1.62302 0
M  V30 4144 O 381.489 0.263997 1.86642 0
M  V30 4145 C 378.616 0.856037 3.27704 0
M  V30 4146 C 377.662 1.97521 3.78005 0
M  V30 4147 S 378.495 3.58906 3.97425 0
M  V30 4148 C 379.651 3.25822 5.34407 0
M  V30 4149 H 379.884 2.15231 2.05093 0
M  V30 4150 H 377.417 1.1964 0.97599 0
M  V30 4151 H 379.375 0.660133 4.05157 0
M  V30 4152 H 378.036 -0.0706253 3.14021 0
M  V30 4153 H 377.229 1.68321 4.75062 0
M  V30 4154 H 376.831 2.12875 3.07507 0
M  V30 4155 H 379.123 2.77812 6.17922 0
M  V30 4156 H 380.066 4.22029 5.68592 0
M  V30 4157 H 380.474 2.61932 5.00052 0
M  V30 4158 N 379.872 -1.04064 1.18357 0
M  V30 4159 C 381.12 -1.76915 0.977013 0
M  V30 4160 C 381.441 -1.88624 -0.494577 0
M  V30 4161 O 380.711 -1.41125 -1.3587 0
M  V30 4162 H 379.291 -0.65535 0.358504 0
M  V30 4163 H 381.953 -1.25592 1.49039 0
M  V30 4164 H 381.049 -2.78178 1.41504 0
M  V30 4165 N 381.35 -0.985608 -1.22978 0
M  V30 4166 C 382.596 -0.65836 -1.91816 0
M  V30 4167 C 382.929 0.806692 -1.76653 0
M  V30 4168 O 382.204 1.58252 -1.13078 0
M  V30 4169 C 382.487 -1.056 -3.44268 0
M  V30 4170 C 382.34 -2.57906 -3.68516 0
M  V30 4171 C 383.659 -0.603781 -4.35939 0
M  V30 4172 H 380.778 -0.24065 -0.696604 0
M  V30 4173 H 383.42 -1.22783 -1.44998 0
M  V30 4174 H 381.57 -0.571445 -3.84274 0
M  V30 4175 H 383.242 -3.13976 -3.3796 0
M  V30 4176 H 381.485 -3.00305 -3.13048 0
M  V30 4177 H 382.156 -2.80779 -4.75255 0
M  V30 4178 H 384.632 -1.01987 -4.03408 0
M  V30 4179 H 383.508 -0.910383 -5.41298 0
M  V30 4180 H 383.769 0.495761 -4.39312 0
M  V30 4181 N 382.828 1.3818 -0.7579 0
M  V30 4182 C 384.075 2.00019 -0.315985 0
M  V30 4183 C 384.403 1.60163 1.10355 0
M  V30 4184 O 383.658 0.83264 1.77103 0
M  V30 4185 C 383.957 3.55252 -0.391218 0
M  V30 4186 C 383.623 4.14834 -1.76702 0
M  V30 4187 C 382.285 4.30821 -2.14353 0
M  V30 4188 C 384.637 4.47658 -2.66931 0
M  V30 4189 C 381.965 4.76928 -3.41696 0
M  V30 4190 C 384.317 4.95184 -3.93669 0
M  V30 4191 C 382.981 5.09377 -4.31383 0
M  V30 4192 H 382.251 0.731923 -0.115627 0
M  V30 4193 H 384.898 1.65161 -0.969223 0
M  V30 4194 H 383.203 3.90273 0.34558 0
M  V30 4195 H 384.9 4.00988 -0.030805 0
M  V30 4196 H 381.49 4.02808 -1.46435 0
M  V30 4197 H 385.674 4.34904 -2.39106 0
M  V30 4198 H 380.93 4.86103 -3.70829 0
M  V30 4199 H 385.104 5.19551 -4.63724 0
M  V30 4200 H 382.731 5.44865 -5.30119 0
M  V30 4201 N 384.306 0.507319 1.49211 0
M  V30 4202 C 385.236 -0.256939 2.32082 0
M  V30 4203 C 386.217 -0.956609 1.40652 0
M  V30 4204 O 387.402 -0.946788 1.69557 0
M  V30 4205 C 384.532 -1.31802 3.21318 0
M  V30 4206 C 383.486 -0.737855 4.21592 0
M  V30 4207 C 382.812 -1.89992 4.99807 0
M  V30 4208 C 384.112 0.275325 5.21574 0
M  V30 4209 H 385.806 0.434798 2.96226 0
M  V30 4210 H 383.352 0.210546 1.42452 0
M  V30 4211 H 385.305 -1.86045 3.78107 0
M  V30 4212 H 384.029 -2.03903 2.5513 0
M  V30 4213 H 382.688 -0.217126 3.65956 0
M  V30 4214 H 382.336 -2.60877 4.30061 0
M  V30 4215 H 382.036 -1.51777 5.6766 0
M  V30 4216 H 383.56 -2.44657 5.59442 0
M  V30 4217 H 384.974 -0.179193 5.7302 0
M  V30 4218 H 383.371 0.573649 5.97352 0
M  V30 4219 H 384.441 1.18903 4.70096 0
M  V30 4220 N 385.784 -1.5574 0.241426 0
M  V30 4221 C 387.033 -1.97986 -0.385295 0
M  V30 4222 C 387.346 -1.13267 -1.59468 0
M  V30 4223 O 388.552 -1.45501 -2.2922 0
M  V30 4224 C 387.008 -3.52275 -0.736884 0
M  V30 4225 C 386.616 -4.45726 0.450796 0
M  V30 4226 C 388.36 -4.03189 -1.3281 0
M  V30 4227 C 386.267 -5.91352 0.0756662 0
M  V30 4228 H 385.197 -0.739386 -0.147731 0
M  V30 4229 H 387.848 -1.80308 0.340779 0
M  V30 4230 H 386.23 -3.65628 -1.52094 0
M  V30 4231 H 387.404 -4.44131 1.22819 0
M  V30 4232 H 385.719 -4.05264 0.956573 0
M  V30 4233 H 388.316 -5.09505 -1.62201 0
M  V30 4234 H 388.659 -3.50212 -2.25071 0
M  V30 4235 H 389.192 -3.93141 -0.607069 0
M  V30 4236 H 385.931 -6.48354 0.965272 0
M  V30 4237 H 385.451 -5.96095 -0.665635 0
M  V30 4238 H 387.13 -6.46084 -0.344075 0
M  V30 4239 N 387.262 0.0317525 -1.57568 0
M  V30 4240 C 388.502 0.727979 -1.90997 0
M  V30 4241 C 388.866 1.72664 -0.839708 0
M  V30 4242 O 390.067 2.47092 -1.05825 0
M  V30 4243 C 388.338 1.38239 -3.29583 0
M  V30 4244 S 389.897 2.10814 -3.84841 0
M  V30 4245 H 386.715 0.241226 -0.668828 0
M  V30 4246 H 389.317 -0.0173037 -1.95492 0
M  V30 4247 H 388.021 0.642288 -4.05343 0
M  V30 4248 H 387.552 2.16628 -3.28384 0
M  V30 4249 H 389.567 3.3792 -3.63352 0
M  V30 4250 N 388.74 1.54641 0.303973 0
M  V30 4251 C 389.986 1.74969 1.03718 0
M  V30 4252 C 390.341 0.527461 1.85029 0
M  V30 4253 O 389.634 -0.480143 1.85486 0
M  V30 4254 C 389.828 2.97753 1.97681 0
M  V30 4255 C 389.657 4.318 1.25613 0
M  V30 4256 C 388.427 4.95616 0.984518 0
M  V30 4257 C 390.625 5.10021 0.662081 0
M  V30 4258 N 388.607 6.13455 0.233794 0
M  V30 4259 C 389.978 6.19984 0.0439736 0
M  V30 4260 C 392.033 4.94663 0.566835 0
M  V30 4261 C 390.736 7.16264 -0.66016 0
M  V30 4262 C 392.762 5.91271 -0.123637 0
M  V30 4263 C 392.124 7.00601 -0.730608 0
M  V30 4264 H 388.223 0.692873 0.362562 0
M  V30 4265 H 390.807 1.92116 0.316135 0
M  V30 4266 H 388.978 2.82036 2.6704 0
M  V30 4267 H 390.71 3.06621 2.64132 0
M  V30 4268 H 387.465 4.55921 1.28191 0
M  V30 4269 H 387.889 6.76879 -0.127996 0
M  V30 4270 H 392.531 4.10267 1.02181 0
M  V30 4271 H 390.249 8.00204 -1.12691 0
M  V30 4272 H 393.835 5.81466 -0.197236 0
M  V30 4273 H 392.715 7.7407 -1.2564 0
M  V30 4274 N 390.218 -0.567019 1.47046 0
M  V30 4275 C 391.458 -1.3355 1.54738 0
M  V30 4276 C 391.822 -1.90947 0.200772 0
M  V30 4277 O 393.023 -2.68367 0.152489 0
M  V30 4278 C 391.294 -2.42317 2.62712 0
M  V30 4279 S 392.853 -3.29383 2.89918 0
M  V30 4280 H 389.671 -0.454788 0.546525 0
M  V30 4281 H 392.273 -0.650191 1.84371 0
M  V30 4282 H 390.977 -1.98568 3.59164 0
M  V30 4283 H 390.508 -3.15601 2.34861 0
M  V30 4284 H 392.523 -4.41548 2.26384 0
M  V30 4285 N 391.696 -1.35014 -0.812953 0
M  V30 4286 C 393.107 -1.25035 -1.38648 0
M  V30 4287 C 393.458 0.119967 -1.95833 0
M  V30 4288 O 392.583 1.02069 -1.90816 0
M  V30 4289 C 393.178 -2.26394 -2.52054 0
M  V30 4290 C 391.737 -2.20175 -3.05287 0
M  V30 4291 C 390.884 -2.12451 -1.78213 0
M  V30 4292 H 393.835 -1.46235 -0.616516 0
M  V30 4293 H 393.856 -1.88672 -3.30429 0
M  V30 4294 H 393.368 -3.26116 -2.10404 0
M  V30 4295 H 391.469 -1.23841 -3.51417 0
M  V30 4296 H 391.582 -3.11863 -3.63701 0
M  V30 4297 H 389.946 -1.58328 -1.9951 0
M  V30 4298 H 390.729 -3.14024 -1.38723 0
M  V30 4299 N 393.175 1.03435 -1.18907 0
M  V30 4300 C 394.422 1.76743 -0.988334 0
M  V30 4301 C 394.75 1.88447 0.481441 0
M  V30 4302 O 394.005 1.39383 1.37371 0
M  V30 4303 C 394.304 3.19792 -1.59586 0
M  V30 4304 C 393.97 3.28108 -3.09283 0
M  V30 4305 C 392.632 3.30084 -3.5014 0
M  V30 4306 C 394.984 3.27696 -4.05296 0
M  V30 4307 C 392.312 3.29299 -4.85571 0
M  V30 4308 C 394.664 3.28451 -5.4065 0
M  V30 4309 C 393.328 3.28723 -5.80946 0
M  V30 4310 H 392.598 0.64675 -0.361657 0
M  V30 4311 H 395.245 1.21442 -1.48068 0
M  V30 4312 H 393.55 3.78136 -1.02568 0
M  V30 4313 H 395.247 3.75171 -1.41589 0
M  V30 4314 H 391.837 3.27294 -2.76725 0
M  V30 4315 H 396.021 3.25354 -3.74778 0
M  V30 4316 H 391.277 3.2783 -5.16079 0
M  V30 4317 H 395.451 3.27082 -6.14809 0
M  V30 4318 H 393.078 3.27868 -6.85862 0
M  V30 4319 N 394.653 0.992116 1.22453 0
M  V30 4320 C 395.9 0.667534 1.91181 0
M  V30 4321 C 396.228 -0.800317 1.77271 0
M  V30 4322 O 395.483 -1.59421 1.13505 0
M  V30 4323 C 395.782 1.01832 3.42586 0
M  V30 4324 C 395.448 2.47831 3.76684 0
M  V30 4325 C 394.11 2.87729 3.85701 0
M  V30 4326 C 396.462 3.42466 3.92895 0
M  V30 4327 C 393.79 4.21252 4.08367 0
M  V30 4328 C 396.142 4.75648 4.17064 0
M  V30 4329 C 394.806 5.15288 4.24305 0
M  V30 4330 H 394.076 0.244268 0.699581 0
M  V30 4331 H 396.723 1.24816 1.45235 0
M  V30 4332 H 395.028 0.355769 3.90181 0
M  V30 4333 H 396.725 0.745228 3.94014 0
M  V30 4334 H 393.315 2.15905 3.70247 0
M  V30 4335 H 397.499 3.12814 3.85307 0
M  V30 4336 H 392.755 4.51554 4.122 0
M  V30 4337 H 396.929 5.48924 4.2855 0
M  V30 4338 H 394.556 6.18769 4.41621 0
M  V30 4339 N 396.131 -1.37776 0.765217 0
M  V30 4340 C 397.38 -1.99092 0.323307 0
M  V30 4341 C 397.693 -1.61434 -1.10446 0
M  V30 4342 O 398.899 -2.15805 -1.64743 0
M  V30 4343 C 397.355 -3.56019 0.527098 0
M  V30 4344 C 396.963 -4.0262 1.96471 0
M  V30 4345 C 398.707 -4.2424 0.148483 0
M  V30 4346 C 396.614 -5.52233 2.11644 0
M  V30 4347 H 395.544 -0.744846 0.117137 0
M  V30 4348 H 398.195 -1.57391 0.943417 0
M  V30 4349 H 396.577 -3.95667 -0.162372 0
M  V30 4350 H 397.751 -3.74234 2.68859 0
M  V30 4351 H 396.066 -3.47161 2.29931 0
M  V30 4352 H 398.663 -5.34159 0.240456 0
M  V30 4353 H 399.006 -4.06446 -0.900422 0
M  V30 4354 H 399.539 -3.89872 0.79025 0
M  V30 4355 H 396.278 -5.74945 3.1483 0
M  V30 4356 H 395.798 -5.82324 1.4373 0
M  V30 4357 H 397.477 -6.18106 1.91193 0
M  V30 4358 N 397.609 -0.515225 -1.4894 0
M  V30 4359 C 398.849 0.0223983 -2.04388 0
M  V30 4360 C 399.213 1.32961 -1.38511 0
M  V30 4361 O 400.414 1.95236 -1.8476 0
M  V30 4362 C 398.685 0.157056 -3.57055 0
M  V30 4363 S 400.244 0.646875 -4.34006 0
M  V30 4364 H 397.062 -0.00500662 -0.710982 0
M  V30 4365 H 399.664 -0.69243 -1.82827 0
M  V30 4366 H 398.368 -0.799412 -4.02539 0
M  V30 4367 H 397.899 0.896704 -3.83044 0
M  V30 4368 H 399.914 1.91381 -4.57808 0
M  V30 4369 N 399.087 1.5561 -0.249682 0
M  V30 4370 C 400.315 2.03411 0.378352 0
M  V30 4371 C 400.73 1.12886 1.51335 0
M  V30 4372 O 400.087 0.143833 1.81932 0
M  V30 4373 C 400.138 3.50537 0.88351 0
M  V30 4374 O 399.859 4.37614 -0.20626 0
M  V30 4375 C 401.36 4.14113 1.58195 0
M  V30 4376 H 398.58 0.664994 0.08958 0
M  V30 4377 H 401.124 2.01044 -0.374357 0
M  V30 4378 H 399.279 3.5343 1.58639 0
M  V30 4379 H 399.693 5.24199 0.177782 0
M  V30 4380 H 401.167 5.18741 1.8871 0
M  V30 4381 H 401.644 3.60767 2.50487 0
M  V30 4382 H 402.25 4.15151 0.923573 0
M  V30 4383 N 400.565 -0.0233959 1.57583 0
M  V30 4384 C 401.811 -0.714119 1.89811 0
M  V30 4385 C 402.144 -1.74702 0.848113 0
M  V30 4386 O 401.419 -1.94023 -0.136135 0
M  V30 4387 C 401.702 -1.37853 3.32669 0
M  V30 4388 C 401.555 -0.358764 4.48367 0
M  V30 4389 C 402.874 -2.31101 3.7454 0
M  V30 4390 H 399.993 -0.25814 0.690314 0
M  V30 4391 H 402.635 0.0230927 1.89986 0
M  V30 4392 H 400.785 -2.00689 3.3265 0
M  V30 4393 H 402.457 0.268115 4.6052 0
M  V30 4394 H 400.7 0.321387 4.32608 0
M  V30 4395 H 401.371 -0.862242 5.45224 0
M  V30 4396 H 403.847 -1.78304 3.75961 0
M  V30 4397 H 402.723 -2.74567 4.75294 0
M  V30 4398 H 402.984 -3.18018 3.0711 0
M  V30 4399 N 402.043 -1.548 -0.295768 0
M  V30 4400 C 402.976 -1.81003 -1.38972 0
M  V30 4401 C 403.954 -0.661544 -1.48534 0
M  V30 4402 O 405.138 -0.902074 -1.65514 0
M  V30 4403 C 402.265 -1.95141 -2.76835 0
M  V30 4404 C 401.311 -3.17592 -2.84671 0
M  V30 4405 S 402.144 -4.75531 -2.46232 0
M  V30 4406 C 403.3 -4.92613 -3.86114 0
M  V30 4407 H 403.533 -2.73507 -1.16537 0
M  V30 4408 H 401.066 -1.46278 -0.494168 0
M  V30 4409 H 403.024 -2.03972 -3.56238 0
M  V30 4410 H 401.685 -1.03565 -2.96535 0
M  V30 4411 H 400.878 -3.24303 -3.85803 0
M  V30 4412 H 400.48 -3.07235 -2.13267 0
M  V30 4413 H 402.772 -4.76957 -4.81164 0
M  V30 4414 H 403.715 -5.94698 -3.8437 0
M  V30 4415 H 404.123 -4.2073 -3.76359 0
M  V30 4416 N 403.521 0.559213 -1.47345 0
M  V30 4417 C 404.798 1.31997 -1.44348 0
M  V30 4418 C 405.178 2.1064 -0.139358 0
M  V30 4419 O 404.526 2.1091 0.879153 0
M  V30 4420 C 404.736 2.22618 -2.68779 0
M  V30 4421 C 406.084 2.83701 -3.1591 0
M  V30 4422 O 407.108 2.32921 -2.69493 0
M  V30 4423 O 405.967 3.75993 -3.966 0
M  V30 4424 H 403.061 0.594251 -0.575147 0
M  V30 4425 H 405.607 0.578282 -1.59543 0
M  V30 4426 H 404.379 1.64093 -3.55231 0
M  V30 4427 H 404.002 3.04085 -2.5616 0
M  V30 4428 N 404.999 1.35443 0.805782 0
M  V30 4429 C 406.41 1.25768 1.37983 0
M  V30 4430 C 406.761 -0.10958 1.95894 0
M  V30 4431 O 405.886 -1.01056 1.91355 0
M  V30 4432 C 406.481 2.27727 2.5085 0
M  V30 4433 C 405.04 2.2179 3.04115 0
M  V30 4434 C 404.187 2.13393 1.77084 0
M  V30 4435 H 407.138 1.4656 0.608752 0
M  V30 4436 H 407.159 1.90422 3.29424 0
M  V30 4437 H 406.671 3.27227 2.08671 0
M  V30 4438 H 404.772 1.25703 3.50756 0
M  V30 4439 H 404.885 3.13788 3.62042 0
M  V30 4440 H 403.249 1.59384 1.98668 0
M  V30 4441 H 404.032 3.14755 1.37056 0
M  V30 4442 N 406.477 -1.02803 1.19454 0
M  V30 4443 C 407.724 -1.76217 0.997693 0
M  V30 4444 C 408.052 -1.887 -0.47144 0
M  V30 4445 O 407.307 -1.4011 -1.3663 0
M  V30 4446 C 407.606 -3.18941 1.6128 0
M  V30 4447 C 407.272 -3.26463 3.11019 0
M  V30 4448 C 405.934 -3.28223 3.51885 0
M  V30 4449 C 408.286 -3.25542 4.07028 0
M  V30 4450 C 405.614 -3.26719 4.8731 0
M  V30 4451 C 407.966 -3.25579 5.42385 0
M  V30 4452 C 406.63 -3.25637 5.82681 0
M  V30 4453 H 405.9 -0.644823 0.365082 0
M  V30 4454 H 408.547 -1.20655 1.4871 0
M  V30 4455 H 406.852 -3.77587 1.04572 0
M  V30 4456 H 408.549 -3.74415 1.43577 0
M  V30 4457 H 405.139 -3.25822 2.78457 0
M  V30 4458 H 409.323 -3.23362 3.76498 0
M  V30 4459 H 404.579 -3.25089 5.1781 0
M  V30 4460 H 408.753 -3.23817 6.16535 0
M  V30 4461 H 406.38 -3.24226 6.87591 0
M  V30 4462 N 407.956 -0.998596 -1.21925 0
M  V30 4463 C 408.886 -0.573688 -2.26343 0
M  V30 4464 C 409.867 0.402296 -1.65274 0
M  V30 4465 O 411.052 0.291683 -1.91997 0
M  V30 4466 C 408.182 0.106839 -3.47136 0
M  V30 4467 C 407.136 -0.788269 -4.20678 0
M  V30 4468 C 406.462 0.0254927 -5.34694 0
M  V30 4469 C 407.762 -2.08784 -4.78755 0
M  V30 4470 H 409.456 -1.44651 -2.62138 0
M  V30 4471 H 407.002 -0.696975 -1.26009 0
M  V30 4472 H 408.955 0.415531 -4.19346 0
M  V30 4473 H 407.679 1.01424 -3.10452 0
M  V30 4474 H 406.338 -1.08069 -3.50309 0
M  V30 4475 H 405.986 0.933989 -4.94253 0
M  V30 4476 H 405.686 -0.570437 -5.84825 0
M  V30 4477 H 407.21 0.328147 -6.09718 0
M  V30 4478 H 408.624 -1.84272 -5.42878 0
M  V30 4479 H 407.021 -2.63307 -5.39249 0
M  V30 4480 H 408.091 -2.76284 -3.98491 0
M  V30 4481 N 409.434 1.37368 -0.772513 0
M  V30 4482 C 410.384 2.27613 -0.132823 0
M  V30 4483 C 411.368 1.46138 0.673247 0
M  V30 4484 O 412.56 1.68686 0.536095 0
M  V30 4485 C 409.689 3.35122 0.744864 0
M  V30 4486 C 408.775 4.24044 -0.0690771 0
M  V30 4487 N 409.166 4.93355 -1.1151 0
M  V30 4488 C 407.464 4.45731 0.154782 0
M  V30 4489 C 408.165 5.59 -1.60917 0
M  V30 4490 N 407.141 5.35737 -0.921222 0
M  V30 4491 H 410.943 2.78675 -0.933681 0
M  V30 4492 H 408.457 1.50494 -0.610342 0
M  V30 4493 H 410.454 3.98683 1.21892 0
M  V30 4494 H 409.114 2.85616 1.54446 0
M  V30 4495 H 410.125 4.95785 -1.49726 0
M  V30 4496 H 406.802 4.07096 0.926224 0
M  V30 4497 H 408.192 6.24395 -2.48153 0
M  V30 4498 N 410.912 0.523116 1.48665 0
M  V30 4499 C 412.142 -0.00961724 2.06598 0
M  V30 4500 C 412.55 -1.29333 1.38093 0
M  V30 4501 O 411.893 -1.77846 0.46007 0
M  V30 4502 C 411.955 -0.311135 3.58151 0
M  V30 4503 C 411.619 0.878092 4.48485 0
M  V30 4504 C 412.616 1.77464 4.88674 0
M  V30 4505 C 410.301 1.08315 4.90483 0
M  V30 4506 C 412.295 2.86021 5.69623 0
M  V30 4507 C 409.982 2.17187 5.71203 0
M  V30 4508 C 410.98 3.05873 6.10681 0
M  V30 4509 O 410.668 4.12862 6.89783 0
M  V30 4510 H 410.4 0.0272658 0.67545 0
M  V30 4511 H 412.954 0.726156 1.92136 0
M  V30 4512 H 411.184 -1.10079 3.70701 0
M  V30 4513 H 412.873 -0.785125 3.98234 0
M  V30 4514 H 413.639 1.62813 4.56855 0
M  V30 4515 H 409.518 0.402149 4.59243 0
M  V30 4516 H 413.062 3.55272 6.00356 0
M  V30 4517 H 408.959 2.31824 6.02435 0
M  V30 4518 H 409.727 4.10487 7.08126 0
M  V30 4519 N 412.39 -1.55475 0.257931 0
M  V30 4520 C 413.639 -1.98383 -0.364275 0
M  V30 4521 C 413.952 -1.14952 -1.58258 0
M  V30 4522 O 415.158 -1.47924 -2.27664 0
M  V30 4523 C 413.614 -3.53037 -0.699479 0
M  V30 4524 C 413.222 -4.45223 0.498046 0
M  V30 4525 C 414.966 -4.04575 -1.28526 0
M  V30 4526 C 412.873 -5.91238 0.138383 0
M  V30 4527 H 411.803 -0.740911 -0.13988 0
M  V30 4528 H 414.454 -1.79936 0.359883 0
M  V30 4529 H 412.836 -3.6722 -1.48207 0
M  V30 4530 H 414.01 -4.42803 1.27522 0
M  V30 4531 H 412.325 -4.04226 0.999503 0
M  V30 4532 H 414.922 -5.11196 -1.56788 0
M  V30 4533 H 415.265 -3.5258 -2.21344 0
M  V30 4534 H 415.798 -3.93762 -0.565337 0
M  V30 4535 H 412.537 -6.47294 1.03398 0
M  V30 4536 H 412.057 -5.96768 -0.602374 0
M  V30 4537 H 413.736 -6.46413 -0.27553 0
M  V30 4538 N 413.868 0.0150385 -1.57593 0
M  V30 4539 C 415.117 0.702115 -1.89085 0
M  V30 4540 C 415.43 1.75764 -0.858277 0
M  V30 4541 O 416.636 2.49829 -1.0629 0
M  V30 4542 C 415.092 1.29992 -3.35604 0
M  V30 4543 C 414.7 0.280007 -4.47124 0
M  V30 4544 C 416.444 1.96606 -3.76227 0
M  V30 4545 C 414.351 0.886949 -5.84711 0
M  V30 4546 H 413.281 0.265997 -0.705522 0
M  V30 4547 H 415.932 -0.0430408 -1.8345 0
M  V30 4548 H 414.314 2.09525 -3.36029 0
M  V30 4549 H 415.488 -0.489631 -4.58191 0
M  V30 4550 H 413.803 -0.284835 -4.15425 0
M  V30 4551 H 416.4 2.42893 -4.76347 0
M  V30 4552 H 416.743 2.79024 -3.08952 0
M  V30 4553 H 417.276 1.23828 -3.78036 0
M  V30 4554 H 414.015 0.101876 -6.55421 0
M  V30 4555 H 413.535 1.6261 -5.77337 0
M  V30 4556 H 415.214 1.39011 -6.3189 0
M  V30 4557 N 415.346 1.54954 0.287554 0
M  V30 4558 C 416.757 1.65732 0.859634 0
M  V30 4559 C 417.108 0.574767 1.87592 0
M  V30 4560 O 416.233 -0.286299 2.14498 0
M  V30 4561 C 416.828 3.00438 1.56597 0
M  V30 4562 C 415.387 3.13292 2.08627 0
M  V30 4563 C 414.534 2.61473 0.923416 0
M  V30 4564 H 417.485 1.5857 0.0642338 0
M  V30 4565 H 417.506 2.92613 2.43224 0
M  V30 4566 H 417.018 3.79207 0.826053 0
M  V30 4567 H 415.119 2.39268 2.85625 0
M  V30 4568 H 415.232 4.19647 2.31157 0
M  V30 4569 H 413.596 2.18264 1.31275 0
M  V30 4570 H 414.379 3.42733 0.197241 0
M  V30 4571 N 416.824 -0.551391 1.4764 0
M  V30 4572 C 418.235 -1.13349 1.48354 0
M  V30 4573 C 418.586 -1.94709 0.241432 0
M  V30 4574 O 417.711 -2.06306 -0.653205 0
M  V30 4575 C 418.306 -2.0623 2.68802 0
M  V30 4576 C 416.865 -2.597 2.72457 0
M  V30 4577 C 416.012 -1.36201 2.41546 0
M  V30 4578 H 418.963 -0.337698 1.55065 0
M  V30 4579 H 418.984 -2.90196 2.46103 0
M  V30 4580 H 418.496 -1.46987 3.59188 0
M  V30 4581 H 416.597 -3.22724 1.86225 0
M  V30 4582 H 416.71 -3.00296 3.73308 0
M  V30 4583 H 415.074 -1.67068 1.9225 0
M  V30 4584 H 415.857 -0.787425 3.34147 0
M  V30 4585 N 418.302 -1.35869 -0.798587 0
M  V30 4586 C 419.53 -1.32722 -1.58722 0
M  V30 4587 C 419.945 0.0935631 -1.88568 0
M  V30 4588 O 419.302 1.04784 -1.49421 0
M  V30 4589 C 419.353 -2.13974 -2.91371 0
M  V30 4590 O 419.074 -3.50514 -2.62815 0
M  V30 4591 C 420.575 -2.18504 -3.85708 0
M  V30 4592 H 417.795 -0.45562 -0.492596 0
M  V30 4593 H 420.339 -1.78837 -0.991843 0
M  V30 4594 H 418.494 -1.71438 -3.47402 0
M  V30 4595 H 418.908 -3.92806 -3.47568 0
M  V30 4596 H 420.382 -2.79732 -4.75872 0
M  V30 4597 H 420.859 -1.18597 -4.22885 0
M  V30 4598 H 421.465 -2.61236 -3.35612 0
M  V30 4599 N 419.78 1.02168 -1.19998 0
M  V30 4600 C 420.71 2.12488 -0.96804 0
M  V30 4601 C 421.691 1.69799 0.101185 0
M  V30 4602 O 422.876 1.94121 -0.0552993 0
M  V30 4603 C 420.006 3.43479 -0.513776 0
M  V30 4604 C 418.96 3.99884 -1.52566 0
M  V30 4605 C 418.286 5.26582 -0.928214 0
M  V30 4606 C 419.586 4.33861 -2.90795 0
M  V30 4607 H 421.28 2.32149 -1.89069 0
M  V30 4608 H 418.826 1.11564 -0.910468 0
M  V30 4609 H 420.779 4.20036 -0.338774 0
M  V30 4610 H 419.503 3.23561 0.444493 0
M  V30 4611 H 418.162 3.25429 -1.68794 0
M  V30 4612 H 417.81 5.02986 0.0378289 0
M  V30 4613 H 417.51 5.65284 -1.60397 0
M  V30 4614 H 419.034 6.05799 -0.764167 0
M  V30 4615 H 420.448 5.01327 -2.78109 0
M  V30 4616 H 418.845 4.83664 -3.55231 0
M  V30 4617 H 419.915 3.42848 -3.42904 0
M  V30 4618 N 421.258 1.00505 1.21394 0
M  V30 4619 C 422.206 0.558623 2.25792 0
M  V30 4620 C 423.2 -0.396848 1.64686 0
M  V30 4621 O 424.406 -0.268035 1.77993 0
M  V30 4622 H 420.781 0.1623 0.734277 0
M  V30 4623 H 422.752 1.4503 2.60785 0
M  V30 4624 C 421.501 -0.0989574 3.47559 0
M  V30 4625 H 420.824 0.627225 3.94849 0
M  V30 4626 H 422.264 -0.3746 4.22342 0
M  V30 4627 C 420.723 -1.33817 3.09184 0
M  V30 4628 O 421.253 -2.43252 3.19674 0
M  V30 4629 N 419.459 -1.21793 2.63846 0
M  V30 4630 H 419.006 -0.32746 2.5551 0
M  V30 4631 H 418.964 -2.04809 2.38539 0
M  V30 4632 N 422.737 -1.36956 0.779787 0
M  V30 4633 C 424.014 -1.93697 0.272156 0
M  V30 4634 C 424.394 -1.71267 -1.23413 0
M  V30 4635 O 423.742 -1.06607 -2.02107 0
M  V30 4636 C 423.952 -3.42812 0.654291 0
M  V30 4637 C 425.3 -4.19921 0.628602 0
M  V30 4638 O 426.324 -3.51209 0.594172 0
M  V30 4639 O 425.183 -5.42465 0.662864 0
M  V30 4640 H 422.277 -0.824447 0.0649286 0
M  V30 4641 H 424.823 -1.46196 0.861682 0
M  V30 4642 H 423.595 -3.52754 1.69353 0
M  V30 4643 H 423.218 -3.97582 0.0381369 0
M  V30 4644 N 424.215 -0.530993 -1.48385 0
M  V30 4645 C 425.461 0.00274135 -2.028 0
M  V30 4646 C 425.794 1.33838 -1.40716 0
M  V30 4647 O 425.069 1.86465 -0.553277 0
M  V30 4648 C 425.352 0.123676 -3.59888 0
M  V30 4649 C 425.205 -1.2372 -4.3245 0
M  V30 4650 C 426.524 0.849967 -4.31814 0
M  V30 4651 H 423.643 -0.000477758 -0.737 0
M  V30 4652 H 426.285 -0.688217 -1.77098 0
M  V30 4653 H 424.435 0.712157 -3.81917 0
M  V30 4654 H 426.107 -1.86687 -4.21836 0
M  V30 4655 H 424.35 -1.81882 -3.93829 0
M  V30 4656 H 425.021 -1.10557 -5.40815 0
M  V30 4657 H 427.497 0.350572 -4.14621 0
M  V30 4658 H 426.373 0.903486 -5.41413 0
M  V30 4659 H 426.634 1.90047 -3.99167 0
M  V30 4660 N 425.693 1.55336 -0.266172 0
M  V30 4661 C 426.623 2.25146 0.618981 0
M  V30 4662 C 427.604 1.23845 1.16604 0
M  V30 4663 O 428.789 1.52544 1.20183 0
M  V30 4664 C 425.919 2.96572 1.80728 0
M  V30 4665 C 424.873 4.04726 1.39215 0
M  V30 4666 C 424.199 4.63678 2.66283 0
M  V30 4667 C 425.499 5.19407 0.548942 0
M  V30 4668 H 427.193 2.99377 0.0368116 0
M  V30 4669 H 424.739 1.43991 0.0162651 0
M  V30 4670 H 426.692 3.44116 2.43232 0
M  V30 4671 H 425.416 2.19861 2.41514 0
M  V30 4672 H 424.075 3.57979 0.790351 0
M  V30 4673 H 423.723 3.83646 3.25308 0
M  V30 4674 H 423.423 5.367 2.39222 0
M  V30 4675 H 424.947 5.13967 3.29651 0
M  V30 4676 H 426.361 5.63059 1.07876 0
M  V30 4677 H 424.758 5.98936 0.373593 0
M  V30 4678 H 425.828 4.8295 -0.434394 0
M  V30 4679 N 427.171 -0.0066808 1.57599 0
M  V30 4680 C 428.42 -0.692078 1.89455 0
M  V30 4681 C 428.733 -1.75306 0.867586 0
M  V30 4682 O 429.939 -2.49262 1.07614 0
M  V30 4683 C 428.395 -1.2821 3.36289 0
M  V30 4684 C 428.003 -0.256291 4.47266 0
M  V30 4685 C 429.747 -1.94608 3.77264 0
M  V30 4686 C 427.654 -0.855927 5.85173 0
M  V30 4687 H 426.584 -0.262252 0.706923 0
M  V30 4688 H 429.235 0.052769 1.83424 0
M  V30 4689 H 427.617 -2.0774 3.37135 0
M  V30 4690 H 428.791 0.513923 4.57925 0
M  V30 4691 H 427.106 0.306862 4.15268 0
M  V30 4692 H 429.703 -2.40364 4.77629 0
M  V30 4693 H 430.046 -2.77382 3.10427 0
M  V30 4694 H 430.579 -1.21822 3.78688 0
M  V30 4695 H 427.318 -0.0671161 6.55466 0
M  V30 4696 H 426.838 -1.59546 5.78191 0
M  V30 4697 H 428.517 -1.35658 6.32618 0
M  V30 4698 N 428.649 -1.55105 -0.279332 0
M  V30 4699 C 429.895 -1.76597 -1.00921 0
M  V30 4700 C 430.25 -0.556831 -1.84166 0
M  V30 4701 O 429.543 0.450573 -1.86227 0
M  V30 4702 C 429.737 -3.0086 -1.92919 0
M  V30 4703 C 429.566 -4.33744 -1.18728 0
M  V30 4704 C 428.336 -4.9712 -0.905545 0
M  V30 4705 C 430.534 -5.11009 -0.580857 0
M  V30 4706 N 428.516 -6.13749 -0.136169 0
M  V30 4707 C 429.887 -6.19976 0.0546661 0
M  V30 4708 C 431.942 -4.95502 -0.488067 0
M  V30 4709 C 430.645 -7.15123 0.774028 0
M  V30 4710 C 432.671 -5.90999 0.217688 0
M  V30 4711 C 432.033 -6.9935 0.841975 0
M  V30 4712 H 428.132 -0.698553 -0.351493 0
M  V30 4713 H 430.716 -1.92595 -0.285531 0
M  V30 4714 H 428.887 -2.86249 -2.62519 0
M  V30 4715 H 430.619 -3.10784 -2.59221 0
M  V30 4716 H 427.374 -4.57903 -1.20921 0
M  V30 4717 H 427.798 -6.7659 0.235665 0
M  V30 4718 H 432.44 -4.11841 -0.956406 0
M  V30 4719 H 430.158 -7.9831 1.25407 0
M  V30 4720 H 433.744 -5.81078 0.289717 0
M  V30 4721 H 432.624 -7.71973 1.37939 0
M  V30 4722 N 430.127 0.543554 -1.4793 0
M  V30 4723 C 431.374 1.30008 -1.55255 0
M  V30 4724 C 431.702 1.93245 -0.220612 0
M  V30 4725 O 430.957 1.79141 0.787843 0
M  V30 4726 C 431.256 2.42078 -2.62932 0
M  V30 4727 C 430.922 1.96583 -4.0579 0
M  V30 4728 C 429.584 1.83893 -4.44676 0
M  V30 4729 C 431.936 1.62034 -4.95373 0
M  V30 4730 C 429.264 1.34969 -5.70964 0
M  V30 4731 C 431.616 1.14577 -6.22137 0
M  V30 4732 C 430.28 1.00493 -6.59892 0
M  V30 4733 H 429.55 0.475735 -0.568117 0
M  V30 4734 H 432.197 0.608075 -1.81589 0
M  V30 4735 H 430.502 3.16892 -2.30406 0
M  V30 4736 H 432.199 3.00236 -2.65818 0
M  V30 4737 H 428.789 2.07407 -3.75074 0
M  V30 4738 H 432.973 1.70705 -4.66019 0
M  V30 4739 H 428.229 1.2274 -5.98953 0
M  V30 4740 H 432.403 0.869109 -6.90955 0
M  V30 4741 H 430.03 0.623624 -7.57638 0
M  V30 4742 N 431.605 1.3629 0.791371 0
M  V30 4743 C 432.853 1.30154 1.5461 0
M  V30 4744 C 433.174 -0.119409 1.94634 0
M  V30 4745 O 432.444 -1.05924 1.64794 0
M  V30 4746 H 431.024 0.478784 0.573389 0
M  V30 4747 H 433.686 1.70565 0.94306 0
M  V30 4748 H 432.782 1.92762 2.45457 0
M  V30 4749 N 433.083 -1.0153 1.20538 0
M  V30 4750 C 434.313 -1.78487 1.04048 0
M  V30 4751 C 434.721 -1.84631 -0.413292 0
M  V30 4752 O 434.064 -1.29919 -1.29872 0
M  V30 4753 C 434.126 -3.24367 1.55003 0
M  V30 4754 C 433.79 -3.41827 3.0332 0
M  V30 4755 C 434.787 -3.30941 4.00966 0
M  V30 4756 C 432.472 -3.67602 3.42307 0
M  V30 4757 C 434.466 -3.45577 5.35589 0
M  V30 4758 C 432.153 -3.81881 4.77085 0
M  V30 4759 C 433.151 -3.70874 5.73534 0
M  V30 4760 O 432.839 -3.84714 7.05868 0
M  V30 4761 H 432.571 -0.568108 0.366373 0
M  V30 4762 H 435.125 -1.28677 1.60098 0
M  V30 4763 H 433.355 -3.75266 0.933397 0
M  V30 4764 H 435.044 -3.82963 1.34514 0
M  V30 4765 H 435.81 -3.10964 3.72191 0
M  V30 4766 H 431.689 -3.75256 2.67776 0
M  V30 4767 H 435.233 -3.36902 6.10854 0
M  V30 4768 H 431.13 -4.01359 5.0555 0
M  V30 4769 H 431.898 -4.01724 7.13134 0
M  V30 4770 N 434.561 -1.01147 -1.20859 0
M  V30 4771 C 435.491 -0.597663 -2.25722 0
M  V30 4772 C 436.472 0.384744 -1.65692 0
M  V30 4773 O 437.657 0.271303 -1.92296 0
M  V30 4774 C 434.787 0.0700149 -3.47229 0
M  V30 4775 C 433.741 -0.832843 -4.19819 0
M  V30 4776 C 433.067 -0.0312202 -5.34691 0
M  V30 4777 C 434.367 -2.1385 -4.76514 0
M  V30 4778 H 436.061 -1.47423 -2.60589 0
M  V30 4779 H 433.607 -0.710301 -1.25263 0
M  V30 4780 H 435.56 0.37103 -4.19763 0
M  V30 4781 H 434.284 0.981259 -3.11511 0
M  V30 4782 H 432.943 -1.11778 -3.49144 0
M  V30 4783 H 432.591 0.881515 -4.95215 0
M  V30 4784 H 432.291 -0.632434 -5.84187 0
M  V30 4785 H 433.815 0.26346 -6.10031 0
M  V30 4786 H 435.229 -1.9002 -5.40893 0
M  V30 4787 H 433.626 -2.69012 -5.36426 0
M  V30 4788 H 434.696 -2.80495 -3.95538 0
M  V30 4789 N 436.039 1.36541 -0.78704 0
M  V30 4790 C 436.987 2.31965 -0.171724 0
M  V30 4791 C 437.981 1.55689 0.667631 0
M  V30 4792 O 439.187 1.70969 0.562981 0
M  V30 4793 H 435.562 0.751101 -0.0367545 0
M  V30 4794 H 437.533 2.81428 -0.992017 0
M  V30 4795 C 436.282 3.40968 0.680904 0
M  V30 4796 H 435.605 3.99775 0.0443961 0
M  V30 4797 H 437.045 4.10063 1.07815 0
M  V30 4798 C 435.504 2.82338 1.83813 0
M  V30 4799 O 436.034 2.74311 2.93456 0
M  V30 4800 N 434.24 2.39661 1.6435 0
M  V30 4801 H 433.787 2.46389 0.751668 0
M  V30 4802 H 433.745 2.00779 2.4194 0
M  V30 4803 N 437.518 0.538854 1.48102 0
M  V30 4804 C 438.743 0.0102694 2.07397 0
M  V30 4805 C 439.168 -1.26562 1.39153 0
M  V30 4806 O 438.526 -1.75357 0.460387 0
M  V30 4807 C 438.574 -0.187602 3.60112 0
M  V30 4808 O 437.678 -1.25432 3.92862 0
M  V30 4809 H 437.019 0.0430975 0.6626 0
M  V30 4810 H 439.549 0.749301 1.90385 0
M  V30 4811 H 439.559 -0.407517 4.0596 0
M  V30 4812 H 438.234 0.744386 4.09184 0
M  V30 4813 H 436.811 -1.01636 3.58782 0
M  V30 4814 N 438.996 -1.55193 0.274407 0
M  V30 4815 C 440.224 -2.03987 -0.345943 0
M  V30 4816 C 440.639 -1.15279 -1.4952 0
M  V30 4817 O 439.996 -0.172759 -1.8168 0
M  V30 4818 C 440.047 -3.51898 -0.827631 0
M  V30 4819 O 439.768 -4.37231 0.275855 0
M  V30 4820 C 441.269 -4.16577 -1.51587 0
M  V30 4821 H 438.489 -0.666335 -0.0789892 0
M  V30 4822 H 441.033 -2.00423 0.406294 0
M  V30 4823 H 439.188 -3.55909 -1.52996 0
M  V30 4824 H 439.602 -5.24415 -0.0943638 0
M  V30 4825 H 441.076 -5.21678 -1.80433 0
M  V30 4826 H 441.553 -3.64707 -2.44716 0
M  V30 4827 H 442.159 -4.16568 -0.857409 0
M  V30 4828 N 440.474 -0.00167713 -1.576 0
M  V30 4829 C 441.721 0.68282 -1.90641 0
M  V30 4830 C 442.049 1.73686 -0.875415 0
M  V30 4831 O 441.304 1.95334 0.119575 0
M  V30 4832 C 441.603 1.36189 -3.30435 0
M  V30 4833 C 441.269 0.440887 -4.48739 0
M  V30 4834 C 439.931 0.187312 -4.80835 0
M  V30 4835 C 442.283 -0.193134 -5.20842 0
M  V30 4836 C 439.611 -0.70855 -5.82406 0
M  V30 4837 C 441.963 -1.07688 -6.23367 0
M  V30 4838 C 440.627 -1.33962 -6.53919 0
M  V30 4839 H 439.897 0.249862 -0.697603 0
M  V30 4840 H 442.544 -0.0575642 -1.91413 0
M  V30 4841 H 440.849 2.17636 -3.25794 0
M  V30 4842 H 442.546 1.89759 -3.5326 0
M  V30 4843 H 439.136 0.648694 -4.23663 0
M  V30 4844 H 443.32 -0.0102445 -4.96299 0
M  V30 4845 H 438.576 -0.920097 -6.04437 0
M  V30 4846 H 442.75 -1.57451 -6.78367 0
M  V30 4847 H 440.377 -2.03549 -7.32442 0
M  V30 4848 N 441.952 1.55251 0.271103 0
M  V30 4849 C 442.9 1.89054 1.35504 0
M  V30 4850 C 443.894 0.767064 1.51038 0
M  V30 4851 O 445.1 0.951429 1.528 0
M  V30 4852 H 441.475 0.600072 0.45323 0
M  V30 4853 H 443.446 2.79598 1.04247 0
M  V30 4854 C 442.195 2.18068 2.70817 0
M  V30 4855 H 441.518 3.04005 2.59656 0
M  V30 4856 H 442.958 2.4564 3.45597 0
M  V30 4857 C 441.417 0.988901 3.2206 0
M  V30 4858 O 441.947 0.224501 4.01072 0
M  V30 4859 N 440.153 0.786085 2.79766 0
M  V30 4860 H 439.7 1.40937 2.15626 0
M  V30 4861 H 439.658 -0.00969349 3.14399 0
M  V30 4862 N 443.43 -0.535701 1.48216 0
M  V30 4863 C 444.841 -1.11769 1.49548 0
M  V30 4864 C 445.192 -1.94442 0.26207 0
M  V30 4865 O 444.317 -2.06987 -0.631287 0
M  V30 4866 C 444.912 -2.03367 2.70975 0
M  V30 4867 C 443.471 -2.56795 2.75196 0
M  V30 4868 C 442.618 -1.33631 2.42977 0
M  V30 4869 H 445.569 -0.321232 1.55415 0
M  V30 4870 H 445.59 -2.87569 2.49167 0
M  V30 4871 H 445.102 -1.43169 3.60727 0
M  V30 4872 H 443.203 -3.20731 1.89638 0
M  V30 4873 H 443.316 -2.9632 3.76472 0
M  V30 4874 H 441.68 -1.6502 1.94012 0
M  V30 4875 H 442.463 -0.75194 3.34964 0
M  V30 4876 N 444.908 -1.36708 -0.784132 0
M  V30 4877 C 445.841 -1.25827 -1.90375 0
M  V30 4878 C 446.819 -0.141331 -1.61985 0
M  V30 4879 O 448.003 -0.313389 -1.85877 0
M  V30 4880 C 445.13 -0.942621 -3.25319 0
M  V30 4881 C 444.176 -2.07474 -3.72635 0
M  V30 4882 S 445.009 -3.69317 -3.8777 0
M  V30 4883 C 446.165 -3.39876 -5.25581 0
M  V30 4884 H 446.398 -2.20593 -1.99314 0
M  V30 4885 H 443.931 -1.22186 -0.943926 0
M  V30 4886 H 445.889 -0.767321 -4.03265 0
M  V30 4887 H 444.55 -0.0126566 -3.14097 0
M  V30 4888 H 443.743 -1.80858 -4.70432 0
M  V30 4889 H 443.345 -2.20953 -3.01754 0
M  V30 4890 H 445.637 -2.94097 -6.10339 0
M  V30 4891 H 446.58 -4.36956 -5.57203 0
M  V30 4892 H 446.988 -2.75098 -4.92931 0
M  V30 4893 N 446.386 1.0089 -1.21074 0
M  V30 4894 C 447.632 1.74866 -1.02712 0
M  V30 4895 C 447.965 1.89178 0.438787 0
M  V30 4896 O 447.24 1.42325 1.32567 0
M  V30 4897 C 447.523 3.16347 -1.72036 0
M  V30 4898 C 447.376 3.09782 -3.26121 0
M  V30 4899 C 448.695 4.15187 -1.45973 0
M  V30 4900 H 445.814 0.634736 -0.374539 0
M  V30 4901 H 448.456 1.17646 -1.49196 0
M  V30 4902 H 446.606 3.65201 -1.32517 0
M  V30 4903 H 448.278 2.68673 -3.74983 0
M  V30 4904 H 446.521 2.46982 -3.56626 0
M  V30 4905 H 447.192 4.09829 -3.6979 0
M  V30 4906 H 449.668 3.75022 -1.80272 0
M  V30 4907 H 448.544 5.12331 -1.96999 0
M  V30 4908 H 448.805 4.40386 -0.388924 0
M  V30 4909 N 447.864 1.01787 1.20321 0
M  V30 4910 C 449.094 0.72614 1.93419 0
M  V30 4911 C 449.502 -0.717317 1.75075 0
M  V30 4912 O 448.845 -1.49836 1.06278 0
M  V30 4913 C 448.907 0.983621 3.45782 0
M  V30 4914 C 448.571 2.41645 3.87888 0
M  V30 4915 C 449.568 3.39732 3.93545 0
M  V30 4916 C 447.253 2.75752 4.19841 0
M  V30 4917 C 449.247 4.69988 4.30569 0
M  V30 4918 C 446.934 4.06221 4.56539 0
M  V30 4919 C 447.932 5.0315 4.61876 0
M  V30 4920 O 447.62 6.31284 4.97731 0
M  V30 4921 H 447.352 0.265824 0.621541 0
M  V30 4922 H 449.906 1.3623 1.53722 0
M  V30 4923 H 448.136 0.290301 3.85609 0
M  V30 4924 H 449.825 0.683279 4.00108 0
M  V30 4925 H 450.591 3.14718 3.69022 0
M  V30 4926 H 446.47 2.00993 4.14877 0
M  V30 4927 H 450.014 5.45642 4.3465 0
M  V30 4928 H 445.911 4.31013 4.80518 0
M  V30 4929 H 446.679 6.35591 5.15719 0
M  V30 4930 N 449.342 -1.36122 0.79427 0
M  V30 4931 C 450.305 -2.28309 0.201889 0
M  V30 4932 C 451.305 -1.49041 -0.603603 0
M  V30 4933 O 452.495 -1.68964 -0.423888 0
M  V30 4934 C 449.627 -3.3321 -0.719978 0
M  V30 4935 H 450.82 -2.82208 1.01481 0
M  V30 4936 H 448.373 -1.45768 0.564037 0
M  V30 4937 H 449.108 -2.84475 -1.55706 0
M  V30 4938 H 448.893 -3.91835 -0.144266 0
M  V30 4939 H 450.383 -4.02044 -1.12916 0
M  V30 4940 N 450.82 -0.546701 -1.47814 0
M  V30 4941 C 452.067 -0.0187407 -2.02491 0
M  V30 4942 C 452.395 1.32685 -1.42215 0
M  V30 4943 O 451.65 1.87413 -0.563454 0
M  V30 4944 C 451.949 0.134869 -3.57145 0
M  V30 4945 C 451.615 -1.13849 -4.3629 0
M  V30 4946 C 450.277 -1.48743 -4.57634 0
M  V30 4947 C 452.629 -1.98277 -4.82012 0
M  V30 4948 C 449.957 -2.67932 -5.21948 0
M  V30 4949 C 452.309 -3.16659 -5.4764 0
M  V30 4950 C 450.973 -3.51879 -5.67219 0
M  V30 4951 H 450.243 -0.0068577 -0.740968 0
M  V30 4952 H 452.89 -0.716097 -1.77607 0
M  V30 4953 H 451.195 0.915118 -3.80963 0
M  V30 4954 H 452.892 0.558556 -3.97091 0
M  V30 4955 H 449.482 -0.856767 -4.19949 0
M  V30 4956 H 453.666 -1.72628 -4.6531 0
M  V30 4957 H 448.922 -2.95401 -5.35302 0
M  V30 4958 H 453.096 -3.82374 -5.82033 0
M  V30 4959 H 450.723 -4.44331 -6.16825 0
M  V30 4960 N 452.299 1.55045 -0.282633 0
M  V30 4961 C 453.546 1.9976 0.33199 0
M  V30 4962 C 453.874 1.17105 1.55295 0
M  V30 4963 O 453.129 0.230599 1.94337 0
M  V30 4964 C 453.428 3.49422 0.750938 0
M  V30 4965 C 453.094 4.4941 -0.366228 0
M  V30 4966 C 451.756 4.76471 -0.672964 0
M  V30 4967 C 454.108 5.09054 -1.11864 0
M  V30 4968 C 451.436 5.60442 -1.73556 0
M  V30 4969 C 453.788 5.9418 -2.17102 0
M  V30 4970 C 452.452 6.19558 -2.48402 0
M  V30 4971 H 451.722 0.730974 0.121484 0
M  V30 4972 H 454.369 1.8732 -0.39791 0
M  V30 4973 H 452.674 3.59377 1.56063 0
M  V30 4974 H 454.371 3.81432 1.23736 0
M  V30 4975 H 450.961 4.2844 -0.117041 0
M  V30 4976 H 455.145 4.88165 -0.894925 0
M  V30 4977 H 450.401 5.78349 -1.983 0
M  V30 4978 H 454.575 6.39427 -2.75873 0
M  V30 4979 H 452.202 6.84417 -3.30874 0
M  V30 4980 N 453.777 0.010035 1.57597 0
M  V30 4981 C 455.007 -0.682422 1.95004 0
M  V30 4982 C 455.415 -1.67278 0.884014 0
M  V30 4983 O 454.758 -1.83129 -0.144672 0
M  V30 4984 C 454.82 -1.46141 3.28456 0
M  V30 4985 C 454.484 -0.631523 4.52615 0
M  V30 4986 C 455.481 0.0850905 5.1983 0
M  V30 4987 C 453.166 -0.574539 4.99003 0
M  V30 4988 C 455.16 0.847566 6.3174 0
M  V30 4989 C 452.847 0.191655 6.10799 0
M  V30 4990 C 453.845 0.901432 6.77025 0
M  V30 4991 O 453.533 1.65511 7.86677 0
M  V30 4992 H 453.265 -0.194361 0.647456 0
M  V30 4993 H 455.819 0.060312 2.05311 0
M  V30 4994 H 454.049 -2.24885 3.14585 0
M  V30 4995 H 455.738 -2.04016 3.50902 0
M  V30 4996 H 456.504 0.0502812 4.84974 0
M  V30 4997 H 452.383 -1.11654 4.47274 0
M  V30 4998 H 455.927 1.4021 6.83364 0
M  V30 4999 H 451.824 0.228249 6.45096 0
M  V30 5000 H 452.592 1.57287 8.03245 0
M  V30 5001 N 455.255 -1.55392 -0.262866 0
M  V30 5002 C 456.666 -1.67079 -0.833158 0
M  V30 5003 C 457.017 -0.604539 -1.86654 0
M  V30 5004 O 456.142 0.252138 -2.14926 0
M  V30 5005 C 456.737 -3.02891 -1.51797 0
M  V30 5006 C 455.296 -3.16571 -2.03617 0
M  V30 5007 C 454.443 -2.62909 -0.881701 0
M  V30 5008 H 457.394 -1.58652 -0.0389986 0
M  V30 5009 H 457.415 -2.96445 -2.38538 0
M  V30 5010 H 456.927 -3.80473 -0.765619 0
M  V30 5011 H 455.028 -2.43782 -2.81782 0
M  V30 5012 H 455.141 -4.23271 -2.24452 0
M  V30 5013 H 453.505 -2.20324 -1.27786 0
M  V30 5014 H 454.288 -3.43003 -0.14269 0
M  V30 5015 N 456.733 0.527833 -1.48498 0
M  V30 5016 C 457.979 1.28295 -1.57836 0
M  V30 5017 C 458.334 1.9077 -0.249943 0
M  V30 5018 O 457.627 1.76421 0.747402 0
M  V30 5019 C 457.821 2.39275 -2.65485 0
M  V30 5020 C 457.65 1.87679 -4.08664 0
M  V30 5021 C 456.42 1.70187 -4.75778 0
M  V30 5022 C 458.618 1.40409 -4.94762 0
M  V30 5023 N 456.6 1.13238 -6.03366 0
M  V30 5024 C 457.971 0.954216 -6.12613 0
M  V30 5025 C 460.026 1.28732 -4.8097 0
M  V30 5026 C 458.729 0.39915 -7.18192 0
M  V30 5027 C 460.755 0.746244 -5.86673 0
M  V30 5028 C 460.117 0.306457 -7.03733 0
M  V30 5029 H 456.216 0.460408 -0.632099 0
M  V30 5030 H 458.8 0.594913 -1.85388 0
M  V30 5031 H 456.971 3.05572 -2.3975 0
M  V30 5032 H 458.703 3.06308 -2.64495 0
M  V30 5033 H 455.458 1.93772 -4.32145 0
M  V30 5034 H 455.882 0.867687 -6.71417 0
M  V30 5035 H 460.524 1.61338 -3.90807 0
M  V30 5036 H 458.242 0.0607678 -8.08077 0
M  V30 5037 H 461.828 0.659041 -5.78055 0
M  V30 5038 H 460.708 -0.105708 -7.84129 0
M  V30 5039 N 458.211 1.37122 0.776871 0
M  V30 5040 C 459.458 1.32047 1.53524 0
M  V30 5041 C 459.786 -0.0965631 1.9426 0
M  V30 5042 O 459.041 -1.06866 1.63945 0
M  V30 5043 C 459.34 2.20068 2.81611 0
M  V30 5044 C 459.006 3.68423 2.59953 0
M  V30 5045 C 457.668 4.08854 2.53755 0
M  V30 5046 C 460.02 4.62431 2.40431 0
M  V30 5047 C 457.348 5.41417 2.26018 0
M  V30 5048 C 459.7 5.95225 2.14219 0
M  V30 5049 C 458.364 6.34767 2.06462 0
M  V30 5050 H 457.634 0.483196 0.561785 0
M  V30 5051 H 460.281 1.69284 0.895268 0
M  V30 5052 H 458.586 1.75809 3.50141 0
M  V30 5053 H 460.283 2.13458 3.39465 0
M  V30 5054 H 456.873 3.36354 2.65638 0
M  V30 5055 H 461.057 4.32057 2.44213 0
M  V30 5056 H 456.313 5.71022 2.18504 0
M  V30 5057 H 460.487 6.67626 1.98112 0
M  V30 5058 H 458.114 7.37413 1.84733 0
M  V30 5059 N 459.689 -1.00246 1.21608 0
M  V30 5060 C 461.105 -1.26435 0.973975 0
M  V30 5061 C 461.305 -1.98642 -0.338143 0
M  V30 5062 O 460.361 -2.29026 -1.06317 0
M  V30 5063 C 461.674 -2.08551 2.16626 0
M  V30 5064 C 463.222 -2.21769 2.20879 0
M  V30 5065 C 463.697 -3.07267 3.39633 0
M  V30 5066 N 465.188 -3.14855 3.39736 0
M  V30 5067 C 465.923 -3.81274 4.28273 0
M  V30 5068 N 465.419 -4.497 5.27012 0
M  V30 5069 N 467.212 -3.7794 4.16074 0
M  V30 5070 H 459.363 -0.518089 2.05984 0
M  V30 5071 H 461.626 -0.291368 0.902113 0
M  V30 5072 H 461.332 -1.62847 3.11727 0
M  V30 5073 H 461.206 -3.09303 2.15897 0
M  V30 5074 H 463.593 -2.66691 1.26332 0
M  V30 5075 H 463.674 -1.20478 2.25652 0
M  V30 5076 H 463.318 -2.63047 4.34475 0
M  V30 5077 H 463.248 -4.08678 3.321 0
M  V30 5078 H 465.739 -2.66147 2.6828 0
M  V30 5079 H 466.052 -4.98092 5.90867 0
M  V30 5080 H 464.397 -4.48479 5.30935 0
M  V30 5081 H 467.588 -3.23638 3.38195 0
M  V30 5082 H 467.761 -4.29424 4.85282 0
M  V30 5083 N 461.167 -1.02423 -1.1978 0
M  V30 5084 C 462.114 -0.601023 -2.22837 0
M  V30 5085 C 463.084 0.382801 -1.61629 0
M  V30 5086 O 464.269 0.280514 -1.88727 0
M  V30 5087 C 461.409 0.0467755 -3.45068 0
M  V30 5088 C 460.522 -0.98253 -4.20678 0
M  V30 5089 C 459.657 -0.304982 -5.30324 0
M  V30 5090 C 458.696 -1.32052 -5.97686 0
M  V30 5091 N 457.833 -0.669105 -6.98904 0
M  V30 5092 H 462.673 -1.48444 -2.58396 0
M  V30 5093 H 460.21 -0.742936 -1.2696 0
M  V30 5094 H 462.168 0.439556 -4.14878 0
M  V30 5095 H 460.798 0.893796 -3.10179 0
M  V30 5096 H 459.85 -1.49341 -3.49859 0
M  V30 5097 H 461.162 -1.75455 -4.66923 0
M  V30 5098 H 460.316 0.142893 -6.06532 0
M  V30 5099 H 459.055 0.499283 -4.85138 0
M  V30 5100 H 458.06 -1.7787 -5.20233 0
M  V30 5101 H 459.285 -2.1262 -6.44957 0
M  V30 5102 H 457.231 0.115152 -6.55899 0
M  V30 5103 H 457.148 -1.37908 -7.43315 0
M  V30 5104 H 458.416 -0.245076 -7.79115 0
M  V30 5105 N 462.645 1.35699 -0.801477 0
M  V30 5106 C 463.608 2.28199 -0.213994 0
M  V30 5107 C 464.608 1.49359 0.595691 0
M  V30 5108 O 465.798 1.69186 0.414921 0
M  V30 5109 C 462.93 3.33587 0.702297 0
M  V30 5110 H 464.123 2.81666 -1.02976 0
M  V30 5111 H 461.676 1.45467 -0.571759 0
M  V30 5112 H 462.411 2.85297 1.54195 0
M  V30 5113 H 462.196 3.91906 0.123484 0
M  V30 5114 H 463.686 4.02638 1.10783 0
M  V30 5115 N 464.123 0.554532 1.47522 0
M  V30 5116 C 465.053 -0.182974 2.32782 0
M  V30 5117 C 466.034 -0.911377 1.43624 0
M  V30 5118 O 467.219 -0.892366 1.72483 0
M  V30 5119 C 464.349 -1.21513 3.25349 0
M  V30 5120 C 463.303 -0.603355 4.23726 0
M  V30 5121 C 462.629 -1.73995 5.05598 0
M  V30 5122 C 463.929 0.441121 5.20434 0
M  V30 5123 H 465.623 0.52882 2.94693 0
M  V30 5124 H 463.169 0.255759 1.41711 0
M  V30 5125 H 465.122 -1.73922 3.83835 0
M  V30 5126 H 463.846 -1.95683 2.61487 0
M  V30 5127 H 462.505 -0.10059 3.66462 0
M  V30 5128 H 462.153 -2.47063 4.38143 0
M  V30 5129 H 461.853 -1.3364 5.72201 0
M  V30 5130 H 463.377 -2.26735 5.66942 0
M  V30 5131 H 464.791 0.00319931 5.733 0
M  V30 5132 H 463.188 0.763402 5.95224 0
M  V30 5133 H 464.258 1.33799 4.66075 0
M  V30 5134 N 465.601 -1.54893 0.290851 0
M  V30 5135 C 466.548 -2.23138 -0.58974 0
M  V30 5136 C 467.518 -1.21036 -1.13752 0
M  V30 5137 O 468.703 -1.49626 -1.18392 0
M  V30 5138 C 465.843 -2.96811 -1.76061 0
M  V30 5139 C 464.956 -4.13665 -1.24519 0
M  V30 5140 C 464.091 -4.74944 -2.3791 0
M  V30 5141 C 463.13 -5.83963 -1.83451 0
M  V30 5142 N 462.267 -6.39239 -2.90376 0
M  V30 5143 H 467.107 -2.98 -0.00114915 0
M  V30 5144 H 464.644 -1.47096 0.0112006 0
M  V30 5145 H 466.602 -3.37751 -2.44909 0
M  V30 5146 H 465.232 -2.24344 -2.32098 0
M  V30 5147 H 464.284 -3.77737 -0.449288 0
M  V30 5148 H 465.596 -4.92238 -0.806424 0
M  V30 5149 H 464.75 -5.18684 -3.14724 0
M  V30 5150 H 463.489 -3.95682 -2.85109 0
M  V30 5151 H 462.494 -5.39657 -1.05122 0
M  V30 5152 H 463.719 -6.65103 -1.37169 0
M  V30 5153 H 461.665 -5.62864 -3.36927 0
M  V30 5154 H 461.582 -7.13129 -2.50965 0
M  V30 5155 H 462.85 -6.87637 -3.67118 0
M  V30 5156 N 467.08 -0.0183926 -1.57589 0
M  V30 5157 C 468.013 1.00148 -2.0505 0
M  V30 5158 C 468.991 1.32387 -0.944058 0
M  V30 5159 O 470.175 1.44237 -1.21358 0
M  V30 5160 C 467.302 2.32435 -2.46357 0
M  V30 5161 C 466.348 2.15731 -3.67916 0
M  V30 5162 S 467.181 1.46613 -5.15039 0
M  V30 5163 C 468.337 2.80293 -5.59631 0
M  V30 5164 H 468.57 0.597429 -2.91235 0
M  V30 5165 H 466.103 0.193002 -1.53189 0
M  V30 5166 H 468.061 3.0849 -2.70822 0
M  V30 5167 H 466.722 2.69975 -1.60537 0
M  V30 5168 H 465.915 3.13502 -3.9463 0
M  V30 5169 H 465.517 1.4782 -3.43548 0
M  V30 5170 H 467.809 3.76557 -5.63215 0
M  V30 5171 H 468.752 2.58256 -6.59325 0
M  V30 5172 H 469.16 2.85047 -4.87246 0
M  V30 5173 N 468.558 1.5553 0.254621 0
M  V30 5174 C 469.491 1.84624 1.34124 0
M  V30 5175 C 470.469 0.700693 1.46728 0
M  V30 5176 O 471.653 0.94564 1.63064 0
M  V30 5177 C 468.78 2.02412 2.71564 0
M  V30 5178 C 467.826 3.25028 2.7615 0
M  V30 5179 S 468.659 4.81893 2.33538 0
M  V30 5180 C 469.815 5.02677 3.72917 0
M  V30 5181 H 470.048 2.76501 1.09245 0
M  V30 5182 H 467.581 1.47537 0.455211 0
M  V30 5183 H 469.539 2.13345 3.50705 0
M  V30 5184 H 468.2 1.11391 2.93685 0
M  V30 5185 H 467.393 3.34418 3.77069 0
M  V30 5186 H 466.995 3.12781 2.05046 0
M  V30 5187 H 469.287 4.89546 4.68349 0
M  V30 5188 H 470.23 6.0468 3.68467 0
M  V30 5189 H 470.638 4.30561 3.65072 0
M  V30 5190 N 470.036 -0.519951 1.48776 0
M  V30 5191 C 470.966 -1.63253 1.66945 0
M  V30 5192 C 471.947 -1.62014 0.518224 0
M  V30 5193 O 473.132 -1.79053 0.751919 0
M  V30 5194 C 470.262 -3.0181 1.71836 0
M  V30 5195 C 469.216 -3.17911 2.8656 0
M  V30 5196 C 468.542 -4.5763 2.76548 0
M  V30 5197 C 469.842 -2.99729 4.27738 0
M  V30 5198 H 471.536 -1.48302 2.6009 0
M  V30 5199 H 469.082 -0.712026 1.25165 0
M  V30 5200 H 471.035 -3.79525 1.83135 0
M  V30 5201 H 469.759 -3.17806 0.752775 0
M  V30 5202 H 468.418 -2.42616 2.74833 0
M  V30 5203 H 468.066 -4.70476 1.77937 0
M  V30 5204 H 467.766 -4.69346 3.53536 0
M  V30 5205 H 469.29 -5.37431 2.89828 0
M  V30 5206 H 470.704 -3.67228 4.40246 0
M  V30 5207 H 469.101 -3.22932 5.05801 0
M  V30 5208 H 470.171 -1.96047 4.43502 0
M  V30 5209 N 471.514 -1.37532 -0.769588 0
M  V30 5210 C 472.761 -1.3286 -1.52822 0
M  V30 5211 C 473.089 0.0862597 -1.94309 0
M  V30 5212 O 472.344 1.05995 -1.6451 0
M  V30 5213 C 472.643 -2.21558 -2.8044 0
M  V30 5214 C 472.309 -3.69796 -2.57996 0
M  V30 5215 C 470.971 -4.10194 -2.51583 0
M  V30 5216 C 473.323 -4.63699 -2.37976 0
M  V30 5217 C 470.651 -5.42608 -2.23144 0
M  V30 5218 C 473.003 -5.96353 -2.1106 0
M  V30 5219 C 471.667 -6.35853 -2.03093 0
M  V30 5220 H 470.937 -0.486168 -0.559215 0
M  V30 5221 H 473.584 -1.69757 -0.886277 0
M  V30 5222 H 471.889 -1.77663 -3.49204 0
M  V30 5223 H 473.586 -2.15256 -3.38328 0
M  V30 5224 H 470.176 -3.37759 -2.63851 0
M  V30 5225 H 474.36 -4.33346 -2.41919 0
M  V30 5226 H 469.616 -5.72173 -2.15472 0
M  V30 5227 H 473.79 -6.68667 -1.94568 0
M  V30 5228 H 471.417 -7.38382 -1.8082 0
M  V30 5229 N 472.992 0.995999 -1.22138 0
M  V30 5230 C 474.24 1.73167 -1.042 0
M  V30 5231 C 474.561 1.90329 0.42423 0
M  V30 5232 O 473.831 1.4607 1.30539 0
M  V30 5233 H 472.411 0.641593 -0.38258 0
M  V30 5234 H 475.073 1.19974 -1.53598 0
M  V30 5235 H 474.169 2.72734 -1.51731 0
M  V30 5236 N 474.47 1.03057 1.19235 0
M  V30 5237 C 475.417 0.612832 2.22515 0
M  V30 5238 C 476.387 -0.374224 1.61829 0
M  V30 5239 O 477.572 -0.270501 1.88873 0
M  V30 5240 C 474.712 -0.028475 3.45088 0
M  V30 5241 C 473.825 1.00483 4.20151 0
M  V30 5242 C 472.96 0.333102 5.30155 0
M  V30 5243 C 471.999 1.3522 5.96977 0
M  V30 5244 N 471.136 0.70616 6.9854 0
M  V30 5245 H 475.976 1.49812 2.57605 0
M  V30 5246 H 473.513 0.749658 1.26564 0
M  V30 5247 H 475.471 -0.417548 4.15105 0
M  V30 5248 H 474.101 -0.877334 3.10649 0
M  V30 5249 H 473.153 1.51194 3.49062 0
M  V30 5250 H 474.465 1.77929 4.65986 0
M  V30 5251 H 473.619 -0.110725 6.06599 0
M  V30 5252 H 472.358 -0.473547 4.85396 0
M  V30 5253 H 471.363 1.80627 5.19282 0
M  V30 5254 H 472.588 2.16037 6.4382 0
M  V30 5255 H 470.534 -0.0803667 6.55951 0
M  V30 5256 H 470.451 1.41848 7.42573 0
M  V30 5257 H 471.719 0.286391 7.78974 0
M  V30 5258 N 475.948 -1.35272 0.808662 0
M  V30 5259 C 477.197 -1.97963 0.386483 0
M  V30 5260 C 477.51 -1.64866 -1.05255 0
M  V30 5261 O 478.716 -2.20937 -1.57794 0
M  V30 5262 C 477.172 -3.54162 0.640096 0
M  V30 5263 C 476.78 -3.96166 2.0918 0
M  V30 5264 C 478.524 -4.23553 0.283376 0
M  V30 5265 C 476.431 -5.4522 2.29106 0
M  V30 5266 H 475.361 -0.740742 0.140774 0
M  V30 5267 H 478.012 -1.5431 0.993012 0
M  V30 5268 H 476.394 -3.95983 -0.0364117 0
M  V30 5269 H 477.568 -3.65491 2.80629 0
M  V30 5270 H 475.883 -3.3967 2.40859 0
M  V30 5271 H 478.48 -5.33124 0.410273 0
M  V30 5272 H 478.823 -4.09105 -0.770659 0
M  V30 5273 H 479.356 -3.8716 0.913884 0
M  V30 5274 H 476.095 -5.64638 3.32962 0
M  V30 5275 H 475.615 -5.77457 1.62184 0
M  V30 5276 H 477.294 -6.1171 2.1076 0
M  V30 5277 N 477.426 -0.562348 -1.47226 0
M  V30 5278 C 478.673 -0.0402165 -2.0246 0
M  V30 5279 C 479.001 1.31169 -1.43614 0
M  V30 5280 O 478.256 1.86805 -0.5833 0
M  V30 5281 C 478.555 0.0969817 -3.57268 0
M  V30 5282 C 478.221 -1.1847 -4.35058 0
M  V30 5283 C 476.883 -1.53588 -4.56031 0
M  V30 5284 C 479.235 -2.03378 -4.79882 0
M  V30 5285 C 476.563 -2.73452 -5.19077 0
M  V30 5286 C 478.915 -3.2245 -5.44251 0
M  V30 5287 C 477.579 -3.57876 -5.63455 0
M  V30 5288 H 476.849 -0.0147163 -0.740854 0
M  V30 5289 H 479.496 -0.734895 -1.76838 0
M  V30 5290 H 477.801 0.87466 -3.81912 0
M  V30 5291 H 479.498 0.516408 -3.97661 0
M  V30 5292 H 476.088 -0.90126 -4.19017 0
M  V30 5293 H 480.272 -1.77553 -4.63453 0
M  V30 5294 H 475.528 -3.01062 -5.32139 0
M  V30 5295 H 479.702 -3.88526 -5.77945 0
M  V30 5296 H 477.329 -4.50849 -6.12078 0
M  V30 5297 N 478.904 1.54736 -0.299062 0
M  V30 5298 C 479.836 2.20891 0.61153 0
M  V30 5299 C 480.849 1.20104 1.09904 0
M  V30 5300 O 482.038 1.46707 1.01683 0
M  V30 5301 C 479.138 2.84018 1.84897 0
M  V30 5302 C 478.311 4.10719 1.50428 0
M  V30 5303 C 477.37 4.57667 2.59667 0
M  V30 5304 O 476.396 5.2291 2.24842 0
M  V30 5305 N 477.598 4.29821 3.90172 0
M  V30 5306 H 480.363 2.99666 0.0452001 0
M  V30 5307 H 477.924 1.61446 -0.121178 0
M  V30 5308 H 479.916 3.1236 2.5732 0
M  V30 5309 H 478.486 2.09095 2.32375 0
M  V30 5310 H 477.706 3.89408 0.612781 0
M  V30 5311 H 478.994 4.93223 1.24934 0
M  V30 5312 H 478.392 3.77549 4.21276 0
M  V30 5313 H 476.949 4.62877 4.58899 0
M  V30 5314 N 480.382 0.0267497 1.57577 0
M  V30 5315 C 481.329 -0.955894 2.10075 0
M  V30 5316 C 482.299 -1.32453 1.00226 0
M  V30 5317 O 483.484 -1.41826 1.27632 0
M  V30 5318 C 480.624 -2.2338 2.6305 0
M  V30 5319 C 479.737 -1.92183 3.86898 0
M  V30 5320 C 478.872 -3.14251 4.28275 0
M  V30 5321 C 477.911 -2.78862 5.44888 0
M  V30 5322 N 477.048 -3.93548 5.81433 0
M  V30 5323 H 481.888 -0.501303 2.93753 0
M  V30 5324 H 479.425 -0.235847 1.45197 0
M  V30 5325 H 481.383 -2.98124 2.91853 0
M  V30 5326 H 480.013 -2.6646 1.82205 0
M  V30 5327 H 479.065 -1.07692 3.64838 0
M  V30 5328 H 480.377 -1.62117 4.7172 0
M  V30 5329 H 479.531 -3.97317 4.58502 0
M  V30 5330 H 478.27 -3.47476 3.42215 0
M  V30 5331 H 477.275 -1.94208 5.14357 0
M  V30 5332 H 478.5 -2.46855 6.32645 0
M  V30 5333 H 476.446 -4.2662 4.98328 0
M  V30 5334 H 476.363 -3.67098 6.6089 0
M  V30 5335 H 477.631 -4.77325 6.16264 0
M  V30 5336 N 481.861 -1.55662 -0.24637 0
M  V30 5337 C 483.138 -1.68272 -0.997198 0
M  V30 5338 C 483.518 -0.566785 -2.03349 0
M  V30 5339 O 482.866 0.429688 -2.24424 0
M  V30 5340 C 483.076 -3.08594 -1.63006 0
M  V30 5341 C 484.424 -3.6721 -2.13171 0
M  V30 5342 O 485.448 -3.11397 -1.72946 0
M  V30 5343 O 484.307 -4.65054 -2.87031 0
M  V30 5344 H 481.401 -0.684429 -0.464205 0
M  V30 5345 H 483.947 -1.67993 -0.240114 0
M  V30 5346 H 482.719 -3.81264 -0.880527 0
M  V30 5347 H 482.342 -3.12886 -2.45333 0
M  V30 5348 N 483.339 0.512053 -1.4905 0
M  V30 5349 C 484.564 1.2959 -1.6193 0
M  V30 5350 C 484.989 1.85906 -0.286454 0
M  V30 5351 O 484.347 1.65312 0.744426 0
M  V30 5352 C 484.395 2.40987 -2.68249 0
M  V30 5353 O 483.499 3.44531 -2.26654 0
M  V30 5354 H 482.84 0.383053 -0.542371 0
M  V30 5355 H 485.37 0.614231 -1.95162 0
M  V30 5356 H 485.38 2.86913 -2.90078 0
M  V30 5357 H 484.055 1.99361 -3.65004 0
M  V30 5358 H 482.632 3.046 -2.15112 0
M  V30 5359 N 484.817 1.37938 0.762283 0
M  V30 5360 C 486.042 1.37059 1.55659 0
M  V30 5361 C 486.467 -0.0396123 1.88058 0
M  V30 5362 O 485.825 -1.01929 1.49934 0
M  V30 5363 C 485.873 2.22494 2.83776 0
M  V30 5364 O 484.977 1.63607 3.78559 0
M  V30 5365 H 484.318 0.467892 0.47114 0
M  V30 5366 H 486.848 1.81587 0.942725 0
M  V30 5367 H 486.858 2.36045 3.32786 0
M  V30 5368 H 485.533 3.24993 2.59524 0
M  V30 5369 H 484.11 1.5915 3.37233 0
M  V30 5370 N 486.295 -0.989507 1.22664 0
M  V30 5371 C 487.711 -1.25395 0.987331 0
M  V30 5372 C 487.911 -1.9899 -0.317056 0
M  V30 5373 O 486.967 -2.30141 -1.03882 0
M  V30 5374 C 488.28 -2.06242 2.18826 0
M  V30 5375 C 489.828 -2.19413 2.23219 0
M  V30 5376 C 490.303 -3.03648 3.42873 0
M  V30 5377 N 491.794 -3.11234 3.43056 0
M  V30 5378 C 492.529 -3.7671 4.32293 0
M  V30 5379 N 492.025 -4.44085 5.31752 0
M  V30 5380 N 493.818 -3.73505 4.2006 0
M  V30 5381 H 485.969 -0.496212 2.06522 0
M  V30 5382 H 488.232 -0.281784 0.905153 0
M  V30 5383 H 487.938 -1.59531 3.13437 0
M  V30 5384 H 487.812 -3.06996 2.19165 0
M  V30 5385 H 490.199 -2.65336 1.29154 0
M  V30 5386 H 490.28 -1.18078 2.26917 0
M  V30 5387 H 489.924 -2.58424 4.37241 0
M  V30 5388 H 489.854 -4.05132 3.36416 0
M  V30 5389 H 492.345 -2.63287 2.71088 0
M  V30 5390 H 492.658 -4.91797 5.96117 0
M  V30 5391 H 491.003 -4.42822 5.35662 0
M  V30 5392 H 494.194 -3.20033 3.41609 0
M  V30 5393 H 494.367 -4.24253 4.8981 0
M  V30 5394 N 487.773 -1.03688 -1.18687 0
M  V30 5395 C 489.013 -0.746858 -1.90267 0
M  V30 5396 C 489.377 0.712075 -1.78307 0
M  V30 5397 O 490.578 1.11553 -2.44559 0
M  V30 5398 C 488.849 -1.19543 -3.36815 0
M  V30 5399 S 490.408 -1.03047 -4.26529 0
M  V30 5400 H 487.226 -0.271663 -0.657054 0
M  V30 5401 H 489.828 -1.32838 -1.43437 0
M  V30 5402 H 488.532 -2.2527 -3.43047 0
M  V30 5403 H 488.063 -0.607533 -3.88681 0
M  V30 5404 H 490.078 0.0543232 -4.9617 0
M  V30 5405 N 489.251 1.34841 -0.815825 0
M  V30 5406 C 490.198 2.29644 -0.230664 0
M  V30 5407 C 491.168 1.53253 0.640533 0
M  V30 5408 O 492.353 1.81653 0.583672 0
M  V30 5409 C 489.493 3.39715 0.607275 0
M  V30 5410 C 488.606 4.31056 -0.28538 0
M  V30 5411 C 487.741 5.28225 0.561446 0
M  V30 5412 C 486.78 6.11204 -0.331035 0
M  V30 5413 N 485.917 7.00483 0.476302 0
M  V30 5414 H 490.757 2.79095 -1.0445 0
M  V30 5415 H 488.294 1.37351 -0.526595 0
M  V30 5416 H 490.252 4.02208 1.10835 0
M  V30 5417 H 488.882 2.91517 1.38629 0
M  V30 5418 H 487.934 3.69487 -0.904621 0
M  V30 5419 H 489.246 4.89239 -0.97193 0
M  V30 5420 H 488.4 5.96135 1.12728 0
M  V30 5421 H 487.139 4.70562 1.28153 0
M  V30 5422 H 486.144 5.42232 -0.909069 0
M  V30 5423 H 487.369 6.70947 -1.04912 0
M  V30 5424 H 485.315 6.45296 1.18019 0
M  V30 5425 H 485.232 7.55847 -0.152008 0
M  V30 5426 H 486.5 7.7273 1.02512 0
M  V30 5427 N 490.729 0.570148 1.46925 0
M  V30 5428 C 491.659 -0.158274 2.32963 0
M  V30 5429 C 492.64 -0.896093 1.44583 0
M  V30 5430 O 493.825 -0.874022 1.7342 0
M  V30 5431 C 490.955 -1.18055 3.26619 0
M  V30 5432 C 489.909 -0.558379 4.24342 0
M  V30 5433 C 489.235 -1.68623 5.07415 0
M  V30 5434 C 490.535 0.496295 5.19937 0
M  V30 5435 H 492.229 0.560046 2.94115 0
M  V30 5436 H 489.775 0.270775 1.41431 0
M  V30 5437 H 491.728 -1.69841 3.85658 0
M  V30 5438 H 490.452 -1.92899 2.63548 0
M  V30 5439 H 489.111 -0.0617157 3.66548 0
M  V30 5440 H 488.759 -2.42402 4.40738 0
M  V30 5441 H 488.459 -1.27564 5.73586 0
M  V30 5442 H 489.983 -2.20709 5.69315 0
M  V30 5443 H 491.397 0.0640052 5.73264 0
M  V30 5444 H 489.794 0.82649 5.94381 0
M  V30 5445 H 490.864 1.38735 4.6463 0
M  V30 5446 N 492.207 -1.54576 0.307264 0
M  V30 5447 C 493.454 -2.00263 -0.300167 0
M  V30 5448 C 493.782 -1.19561 -1.53413 0
M  V30 5449 O 493.037 -0.261487 -1.93945 0
M  V30 5450 C 493.336 -3.50572 -0.695253 0
M  V30 5451 C 493.002 -4.48771 0.437679 0
M  V30 5452 C 491.664 -4.7534 0.748681 0
M  V30 5453 C 494.016 -5.0721 1.19949 0
M  V30 5454 C 491.344 -5.5761 1.8245 0
M  V30 5455 C 493.696 -5.90651 2.26527 0
M  V30 5456 C 492.36 -6.15528 2.58227 0
M  V30 5457 H 491.63 -0.732814 -0.109839 0
M  V30 5458 H 494.277 -1.86664 0.427661 0
M  V30 5459 H 492.582 -3.61814 -1.50326 0
M  V30 5460 H 494.279 -3.83352 -1.17653 0
M  V30 5461 H 490.869 -4.282 0.185187 0
M  V30 5462 H 495.053 -4.86679 0.972474 0
M  V30 5463 H 490.309 -5.75121 2.07476 0
M  V30 5464 H 494.483 -6.34957 2.86011 0
M  V30 5465 H 492.11 -6.79066 3.4172 0
M  V30 5466 N 493.685 -0.035106 -1.57561 0
M  V30 5467 C 494.615 0.942993 -2.13612 0
M  V30 5468 C 495.596 1.33531 -1.05373 0
M  V30 5469 O 496.781 1.41287 -1.33235 0
M  V30 5470 C 493.911 2.22332 -2.66807 0
M  V30 5471 C 492.865 1.97156 -3.79886 0
M  V30 5472 C 492.191 3.31506 -4.19533 0
M  V30 5473 C 493.491 1.30596 -5.05709 0
M  V30 5474 H 495.185 0.476179 -2.95589 0
M  V30 5475 H 492.731 0.227602 -1.4219 0
M  V30 5476 H 494.684 2.91142 -3.04654 0
M  V30 5477 H 493.408 2.7119 -1.81999 0
M  V30 5478 H 492.067 1.30763 -3.42486 0
M  V30 5479 H 491.715 3.78134 -3.31698 0
M  V30 5480 H 491.415 3.15465 -4.95738 0
M  V30 5481 H 492.939 4.01574 -4.59968 0
M  V30 5482 H 494.353 1.89416 -5.41105 0
M  V30 5483 H 492.75 1.24934 -5.86951 0
M  V30 5484 H 493.82 0.279742 -4.84092 0
M  V30 5485 N 495.163 1.55791 0.238111 0
M  V30 5486 C 496.073 1.94196 1.31625 0
M  V30 5487 C 497.089 0.843545 1.52185 0
M  V30 5488 O 498.265 1.1457 1.65637 0
M  V30 5489 C 495.33 2.2365 2.64918 0
M  V30 5490 C 494.391 3.46971 2.52804 0
M  V30 5491 C 493.624 3.7501 3.79741 0
M  V30 5492 O 493.847 3.04982 4.82019 0
M  V30 5493 O 492.781 4.68525 3.77846 0
M  V30 5494 H 496.607 2.86044 1.02043 0
M  V30 5495 H 494.192 1.42786 0.439603 0
M  V30 5496 H 496.074 2.43863 3.4367 0
M  V30 5497 H 494.749 1.34979 2.94215 0
M  V30 5498 H 493.656 3.32055 1.72309 0
M  V30 5499 H 494.989 4.35971 2.28451 0
M  V30 5500 N 496.642 -0.504142 1.49319 0
M  V30 5501 C 497.572 -1.61473 1.68667 0
M  V30 5502 C 498.553 -1.61455 0.535378 0
M  V30 5503 O 499.738 -1.78245 0.770868 0
M  V30 5504 C 496.868 -2.99971 1.75028 0
M  V30 5505 C 495.822 -3.14854 2.89916 0
M  V30 5506 C 495.148 -4.54671 2.81387 0
M  V30 5507 C 496.448 -2.95176 4.30893 0
M  V30 5508 H 498.142 -1.45535 2.61648 0
M  V30 5509 H 495.688 -0.698711 1.25913 0
M  V30 5510 H 497.641 -3.77562 1.8715 0
M  V30 5511 H 496.365 -3.1699 0.786441 0
M  V30 5512 H 495.024 -2.39687 2.77391 0
M  V30 5513 H 494.672 -4.68562 1.82917 0
M  V30 5514 H 494.372 -4.6557 3.58494 0
M  V30 5515 H 495.896 -5.34327 2.95512 0
M  V30 5516 H 497.31 -3.62538 4.44116 0
M  V30 5517 H 495.707 -3.17549 5.09198 0
M  V30 5518 H 496.777 -1.91332 4.45556 0
M  V30 5519 N 498.12 -1.38341 -0.754957 0
M  V30 5520 C 499.345 -1.37882 -1.5493 0
M  V30 5521 C 499.77 0.0296385 -1.88077 0
M  V30 5522 O 499.128 1.01133 -1.50472 0
M  V30 5523 C 499.176 -2.23996 -2.82592 0
M  V30 5524 O 498.28 -1.65612 -3.77686 0
M  V30 5525 H 497.621 -0.470384 -0.468652 0
M  V30 5526 H 500.151 -1.82084 -0.933082 0
M  V30 5527 H 500.161 -2.37806 -3.3153 0
M  V30 5528 H 498.836 -3.26365 -2.57796 0
M  V30 5529 H 497.413 -1.60936 -3.36384 0
M  V30 5530 N 499.598 0.982988 -1.23187 0
M  V30 5531 C 500.823 1.76455 -1.08988 0
M  V30 5532 C 501.248 1.84726 0.354691 0
M  V30 5533 O 500.606 1.30699 1.25649 0
M  V30 5534 C 500.654 3.17094 -1.71708 0
M  V30 5535 O 499.758 4.00648 -0.977477 0
M  V30 5536 H 499.099 0.542988 -0.382177 0
M  V30 5537 H 501.629 1.23413 -1.63188 0
M  V30 5538 H 501.639 3.67684 -1.76841 0
M  V30 5539 H 500.314 3.10389 -2.76823 0
M  V30 5540 H 498.891 3.59161 -1.0029 0
M  V30 5541 O 501.115 1.16872 1.1146 0
M  V30 5542 H 501.806 0.903209 1.71353 0
M  V30 END ATOM
M  V30 BEGIN BOND
M  V30 END BOND
M  V30 END CTAB
M  END
$$$$
