drugbank_target|Q8NFD2 Ankyrin repeat and protein kinase domain-containing protein 1 (DB12010)
 OpenBabel12092121143D

  0  0  0     0  0            999 V3000
M  V30 BEGIN CTAB
M  V30 COUNTS 11927 12059 0 0 0
M  V30 BEGIN ATOM
M  V30 1 H -0.908 1.98254 -0.117106 0
M  V30 2 N 0 1.576 0 0
M  V30 3 C 0.933 2.03868 1.02534 0
M  V30 4 C 1.911 0.928543 1.3348 0
M  V30 5 O 3.095 1.19667 1.45644 0
M  V30 6 C 0.222 2.43627 2.35294 0
M  V30 7 C -0.732 3.65373 2.2001 0
M  V30 8 S 0.101 5.13292 1.52614 0
M  V30 9 C 1.257 5.56322 2.86805 0
M  V30 10 H 1.49 2.90518 0.631377 0
M  V30 11 H -0.977 1.52953 0.210867 0
M  V30 12 H 0.981 2.67203 3.11629 0
M  V30 13 H -0.358 1.57376 2.7183 0
M  V30 14 H -1.165 3.90944 3.18086 0
M  V30 15 H -1.563 3.418 1.51819 0
M  V30 16 H 0.729 5.58782 3.83104 0
M  V30 17 H 1.672 6.56266 2.65933 0
M  V30 18 H 2.08 4.83886 2.90714 0
M  V30 19 N 1.4781 -0.272755 1.55222 0
M  V30 20 C 2.4411 -1.32041 1.87344 0
M  V30 21 C 3.4411 -1.42342 0.74803 0
M  V30 22 O 4.6311 -1.41488 1.0162 0
M  V30 23 C 1.7631 -2.70173 2.07893 0
M  V30 24 H 2.9561 -1.04789 2.80997 0
M  V30 25 H 0.5091 -0.51083 1.47717 0
M  V30 26 H 1.2441 -3.02605 1.16622 0
M  V30 27 H 1.0291 -2.64082 2.89833 0
M  V30 28 H 2.5191 -3.45869 2.34017 0
M  V30 29 N 2.9562 -1.48159 -0.537278 0
M  V30 30 C 3.9192 -1.61665 -1.62472 0
M  V30 31 C 4.9192 -0.490395 -1.5314 0
M  V30 32 O 6.1092 -0.755998 -1.5694 0
M  V30 33 C 3.2412 -1.57997 -3.02076 0
M  V30 34 H 4.4342 -2.58621 -1.51839 0
M  V30 35 H 1.9872 -1.36647 -0.758771 0
M  V30 36 H 2.7222 -0.624913 -3.18222 0
M  V30 37 H 2.5072 -2.39755 -3.10258 0
M  V30 38 H 3.9972 -1.70627 -3.81151 0
M  V30 39 N 4.4343 0.785586 -1.36625 0
M  V30 40 C 5.7113 1.53198 -1.21613 0
M  V30 41 C 6.0913 2.10187 0.196113 0
M  V30 42 O 5.4393 1.94318 1.20219 0
M  V30 43 C 5.6493 2.62388 -2.30116 0
M  V30 44 C 6.9973 3.30167 -2.66974 0
M  V30 45 O 8.0213 2.72674 -2.29188 0
M  V30 46 O 6.8803 4.34077 -3.32023 0
M  V30 47 H 3.9743 0.677865 -0.473738 0
M  V30 48 H 6.5203 0.823739 -1.48367 0
M  V30 49 H 5.2923 2.18299 -3.24748 0
M  V30 50 H 4.9153 3.40827 -2.0475 0
M  V30 51 N 5.9124 1.20967 1.01018 0
M  V30 52 C 7.3234 1.02319 1.56165 0
M  V30 53 C 7.6744 -0.418546 1.91684 0
M  V30 54 O 6.7994 -1.30096 1.72928 0
M  V30 55 C 7.3944 1.85109 2.8376 0
M  V30 56 C 5.9534 1.70809 3.35412 0
M  V30 57 C 5.1004 1.82643 2.08655 0
M  V30 58 H 8.0514 1.35065 0.833255 0
M  V30 59 H 8.0724 1.35827 3.55431 0
M  V30 60 H 7.5844 2.90035 2.57878 0
M  V30 61 H 5.6854 0.685464 3.66241 0
M  V30 62 H 5.7984 2.52467 4.07182 0
M  V30 63 H 4.1624 1.25896 2.21409 0
M  V30 64 H 4.9454 2.89066 1.85191 0
M  V30 65 N 7.3905 -1.2043 1.01659 0
M  V30 66 C 8.6185 -1.93777 0.725132 0
M  V30 67 C 9.0335 -1.74772 -0.714166 0
M  V30 68 O 8.3905 -1.06169 -1.4844 0
M  V30 69 C 8.4415 -3.45876 1.05129 0
M  V30 70 O 8.1625 -3.6426 2.43406 0
M  V30 71 C 9.6635 -4.36368 0.780891 0
M  V30 72 H 6.8835 -0.615901 0.266284 0
M  V30 73 H 9.4275 -1.52922 1.35776 0
M  V30 74 H 7.5825 -3.8461 0.464065 0
M  V30 75 H 7.9965 -4.58246 2.55169 0
M  V30 76 H 9.4705 -5.41743 1.05918 0
M  V30 77 H 9.9475 -4.38275 -0.284937 0
M  V30 78 H 10.5535 -4.03296 1.35027 0
M  V30 79 N 8.8686 -0.792821 -1.36206 0
M  V30 80 C 9.7786 -0.194808 -2.3379 0
M  V30 81 C 10.7946 0.654869 -1.61206 0
M  V30 82 O 11.9706 0.569856 -1.9317 0
M  V30 83 C 9.0356 0.657721 -3.40404 0
M  V30 84 C 8.0966 -0.210849 -4.28782 0
M  V30 85 C 7.3296 0.601086 -5.30304 0
M  V30 86 O 7.5526 1.83682 -5.40016 0
M  V30 87 O 6.4866 -0.000808277 -6.019 0
M  V30 88 H 10.3126 -1.00172 -2.86704 0
M  V30 89 H 7.8976 -0.554341 -1.38735 0
M  V30 90 H 9.7796 1.14375 -4.05581 0
M  V30 91 H 8.4546 1.44247 -2.89784 0
M  V30 92 H 7.3616 -0.743714 -3.66633 0
M  V30 93 H 8.6946 -0.959195 -4.82763 0
M  V30 94 N 10.3467 1.47872 -0.545128 0
M  V30 95 C 11.2767 2.32661 0.197793 0
M  V30 96 C 12.2577 1.43041 0.920504 0
M  V30 97 O 13.4427 1.71912 0.90333 0
M  V30 98 C 10.5727 3.24569 1.23582 0
M  V30 99 C 9.5267 4.23333 0.630323 0
M  V30 100 C 8.8527 5.0448 1.77211 0
M  V30 101 C 10.1527 5.20704 -0.407974 0
M  V30 102 H 11.8467 2.95024 -0.510045 0
M  V30 103 H 9.3927 1.4187 -0.246731 0
M  V30 104 H 11.3457 3.8272 1.76362 0
M  V30 105 H 10.0697 2.60236 1.97344 0
M  V30 106 H 8.7287 3.6639 0.123922 0
M  V30 107 H 8.3767 4.36561 2.49847 0
M  V30 108 H 8.0767 5.71339 1.37281 0
M  V30 109 H 9.6007 5.65487 2.3034 0
M  V30 110 H 11.0147 5.7329 0.033305 0
M  V30 111 H 9.4117 5.95699 -0.725486 0
M  V30 112 H 10.4817 4.66917 -1.30828 0
M  V30 113 N 11.8248 0.280983 1.55075 0
M  V30 114 C 13.2408 -0.0729964 1.59433 0
M  V30 115 C 13.4408 -1.5411 1.29817 0
M  V30 116 O 12.4968 -2.29086 1.06187 0
M  V30 117 C 13.8098 0.306921 2.9913 0
M  V30 118 C 15.3578 0.254023 3.11968 0
M  V30 119 C 15.8328 0.608467 4.5394 0
M  V30 120 N 17.3238 0.560241 4.59799 0
M  V30 121 C 18.0588 0.80722 5.6769 0
M  V30 122 N 17.5548 1.11912 6.83701 0
M  V30 123 N 19.3478 0.735623 5.57266 0
M  V30 124 H 11.4988 1.238 1.7259 0
M  V30 125 H 13.7618 0.500547 0.805082 0
M  V30 126 H 13.4678 1.32816 3.25657 0
M  V30 127 H 13.3418 -0.349363 3.75579 0
M  V30 128 H 15.7288 -0.75794 2.852 0
M  V30 129 H 15.8098 0.944649 2.37718 0
M  V30 130 H 15.4538 1.61814 4.81434 0
M  V30 131 H 15.3838 -0.104013 5.26497 0
M  V30 132 H 17.8748 0.329288 3.76463 0
M  V30 133 H 18.1878 1.29409 7.61888 0
M  V30 134 H 16.5328 1.15695 6.85303 0
M  V30 135 H 19.7238 0.491752 4.6551 0
M  V30 136 H 19.8968 0.931482 6.4127 0
M  V30 137 N 13.3029 -1.57598 0.00835791 0
M  V30 138 C 14.2329 -2.1198 -0.979113 0
M  V30 139 C 15.2139 -1.03091 -1.35301 0
M  V30 140 O 16.3989 -1.30818 -1.43528 0
M  V30 141 C 13.5289 -2.62995 -2.26828 0
M  V30 142 C 12.4829 -3.76485 -2.03576 0
M  V30 143 C 11.8089 -4.13846 -3.38579 0
M  V30 144 C 13.1089 -5.0342 -1.39161 0
M  V30 145 H 14.8029 -2.94738 -0.526281 0
M  V30 146 H 12.3489 -1.41783 -0.251704 0
M  V30 147 H 14.3019 -2.99669 -2.96271 0
M  V30 148 H 13.0259 -1.7737 -2.7424 0
M  V30 149 H 11.6849 -3.40217 -1.36557 0
M  V30 150 H 11.3329 -3.25232 -3.83709 0
M  V30 151 H 11.0329 -4.90312 -3.23834 0
M  V30 152 H 12.5569 -4.53086 -4.09323 0
M  V30 153 H 13.9709 -5.37812 -1.98573 0
M  V30 154 H 12.3679 -5.84746 -1.34878 0
M  V30 155 H 13.4379 -4.83548 -0.361868 0
M  V30 156 N 14.781 0.264519 -1.55364 0
M  V30 157 C 16.029 0.993021 -1.76021 0
M  V30 158 C 16.35 1.86511 -0.569099 0
M  V30 159 O 15.62 1.91438 0.415735 0
M  V30 160 H 14.2 0.369639 -0.649135 0
M  V30 161 H 16.862 0.286707 -1.9278 0
M  V30 162 H 15.958 1.62502 -2.66457 0
M  V30 163 N 16.2591 1.48442 0.529413 0
M  V30 164 C 17.4841 1.60406 1.31471 0
M  V30 165 C 17.9091 0.264738 1.86228 0
M  V30 166 O 17.2671 -0.763668 1.64432 0
M  V30 167 C 17.3151 2.65419 2.44101 0
M  V30 168 O 16.4191 2.22618 3.47153 0
M  V30 169 H 15.7601 0.537863 0.389357 0
M  V30 170 H 18.2901 1.94432 0.636965 0
M  V30 171 H 18.3001 2.86709 2.90279 0
M  V30 172 H 16.9751 3.62652 2.03608 0
M  V30 173 H 15.5521 2.11543 3.0709 0
M  V30 174 N 17.7372 -0.778329 1.37039 0
M  V30 175 C 18.6672 -1.90546 1.34962 0
M  V30 176 C 19.6482 -1.68681 0.219274 0
M  V30 177 O 20.8332 -1.89634 0.418624 0
M  V30 178 C 17.9632 -3.27734 1.14925 0
M  V30 179 C 16.9172 -3.64147 2.24902 0
M  V30 180 C 16.2432 -4.99806 1.89996 0
M  V30 181 C 17.5432 -3.71579 3.67051 0
M  V30 182 H 19.2372 -1.92541 2.29277 0
M  V30 183 H 16.7832 -0.924948 1.10366 0
M  V30 184 H 18.7362 -4.06215 1.12104 0
M  V30 185 H 17.4602 -3.26154 0.170631 0
M  V30 186 H 16.1192 -2.8797 2.26868 0
M  V30 187 H 15.7672 -4.94759 0.906796 0
M  V30 188 H 15.4672 -5.25139 2.63634 0
M  V30 189 H 16.9912 -5.80694 1.88749 0
M  V30 190 H 18.4052 -4.40227 3.67251 0
M  V30 191 H 16.8022 -4.08405 4.39688 0
M  V30 192 H 17.8722 -2.72404 4.01154 0
M  V30 193 N 19.2153 -1.21501 -1.00376 0
M  V30 194 C 20.6263 -1.03146 -1.55621 0
M  V30 195 C 20.9773 0.408375 -1.91903 0
M  V30 196 O 20.1023 1.29177 -1.73616 0
M  V30 197 C 20.6973 -1.86612 -2.82775 0
M  V30 198 C 19.2563 -1.72586 -3.34501 0
M  V30 199 C 18.4033 -1.83747 -2.07683 0
M  V30 200 H 21.3543 -1.35505 -0.826081 0
M  V30 201 H 21.3753 -1.3771 -3.54706 0
M  V30 202 H 20.8873 -2.91399 -2.56336 0
M  V30 203 H 18.9883 -0.704877 -3.65872 0
M  V30 204 H 19.1013 -2.54623 -4.05837 0
M  V30 205 H 17.4653 -1.27069 -2.20739 0
M  V30 206 H 18.2483 -2.90044 -1.83655 0
M  V30 207 N 20.6934 1.19889 -1.02296 0
M  V30 208 C 21.9394 1.89701 -0.717033 0
M  V30 209 C 22.2724 1.7905 0.751989 0
M  V30 210 O 21.5474 1.17891 1.547 0
M  V30 211 C 21.8304 3.40858 -1.16136 0
M  V30 212 C 21.6834 3.60411 -2.69117 0
M  V30 213 C 23.0024 4.33876 -0.737549 0
M  V30 214 H 20.1214 0.688874 -0.261957 0
M  V30 215 H 22.7634 1.41154 -1.27183 0
M  V30 216 H 20.9134 3.82335 -0.689342 0
M  V30 217 H 22.5854 3.28145 -3.2422 0
M  V30 218 H 20.8284 3.03665 -3.0979 0
M  V30 219 H 21.4994 4.66396 -2.95261 0
M  V30 220 H 23.9754 4.00081 -1.14344 0
M  V30 221 H 22.8514 5.38242 -1.0764 0
M  V30 222 H 23.1124 4.40628 0.360436 0
M  V30 223 N 22.1715 0.800033 1.35784 0
M  V30 224 C 23.4185 0.377342 1.98953 0
M  V30 225 C 23.7465 -1.05378 1.6348 0
M  V30 226 O 23.0015 -1.74459 0.886707 0
M  V30 227 C 23.3005 0.500276 3.53881 0
M  V30 228 C 22.9665 1.89375 4.09204 0
M  V30 229 C 21.6285 2.27499 4.24025 0
M  V30 230 C 23.9805 2.8057 4.39238 0
M  V30 231 C 21.3085 3.562 4.66195 0
M  V30 232 C 23.6605 4.0871 4.82844 0
M  V30 233 C 22.3245 4.46843 4.95871 0
M  V30 234 H 21.5945 0.138079 0.728021 0
M  V30 235 H 24.2415 1.01955 1.62103 0
M  V30 236 H 22.5465 -0.225405 3.91151 0
M  V30 237 H 24.2435 0.154097 4.00704 0
M  V30 238 H 20.8335 1.58753 3.98115 0
M  V30 239 H 25.0175 2.52367 4.27346 0
M  V30 240 H 20.2735 3.85602 4.74469 0
M  V30 241 H 24.4475 4.79481 5.05046 0
M  V30 242 H 22.0745 5.46623 5.28306 0
M  V30 243 N 23.6496 -1.47581 0.552962 0
M  V30 244 C 24.8776 -2.06875 0.0320556 0
M  V30 245 C 25.2926 -1.40625 -1.25976 0
M  V30 246 O 24.6496 -0.501349 -1.75479 0
M  V30 247 C 24.7006 -3.61092 -0.17167 0
M  V30 248 O 24.4216 -4.24858 1.06899 0
M  V30 249 C 25.9226 -4.37242 -0.730344 0
M  V30 250 H 23.1426 -0.669561 0.043915 0
M  V30 251 H 25.6866 -1.89646 0.765163 0
M  V30 252 H 23.8416 -3.7785 -0.854894 0
M  V30 253 H 24.2556 -5.17334 0.864059 0
M  V30 254 H 25.7296 -5.45842 -0.822203 0
M  V30 255 H 26.2066 -4.03235 -1.74064 0
M  V30 256 H 26.8126 -4.25219 -0.0829543 0
M  V30 257 N 25.1277 -0.289203 -1.54924 0
M  V30 258 C 26.5437 0.0645403 -1.59469 0
M  V30 259 C 26.7437 1.53419 -1.30632 0
M  V30 260 O 25.7997 2.2852 -1.074 0
M  V30 261 C 27.1127 -0.32278 -2.98963 0
M  V30 262 C 28.6607 -0.270564 -3.11828 0
M  V30 263 C 29.1357 -0.632532 -4.53611 0
M  V30 264 N 30.6267 -0.584617 -4.59496 0
M  V30 265 C 31.3617 -0.837314 -5.67254 0
M  V30 266 N 30.8577 -1.15536 -6.83098 0
M  V30 267 N 32.6507 -0.765166 -5.56868 0
M  V30 268 H 24.8017 -1.24714 -1.71931 0
M  V30 269 H 27.0647 -0.504809 -0.802416 0
M  V30 270 H 26.7707 -1.34541 -3.24948 0
M  V30 271 H 26.6447 0.32944 -3.75759 0
M  V30 272 H 29.0317 0.742805 -2.85598 0
M  V30 273 H 29.1127 -0.957242 -2.37214 0
M  V30 274 H 28.7567 -1.64365 -4.80569 0
M  V30 275 H 28.6867 0.07609 -5.26545 0
M  V30 276 H 31.1777 -0.349248 -3.76283 0
M  V30 277 H 31.4907 -1.33447 -7.61191 0
M  V30 278 H 29.8357 -1.19328 -6.84679 0
M  V30 279 H 33.0267 -0.516432 -4.65243 0
M  V30 280 H 33.1997 -0.965477 -6.40767 0
M  V30 281 N 26.6058 1.57591 -0.0167156 0
M  V30 282 C 27.8828 1.82547 0.702564 0
M  V30 283 C 28.2628 0.898018 1.91047 0
M  V30 284 O 27.6108 -0.0493456 2.28447 0
M  V30 285 C 27.8208 3.31459 1.09251 0
M  V30 286 C 29.1688 3.97622 1.48937 0
M  V30 287 O 30.1928 3.35881 1.18584 0
M  V30 288 O 29.0518 5.06415 2.05442 0
M  V30 289 H 26.1458 0.752268 0.343544 0
M  V30 290 H 28.6918 1.69644 -0.0434495 0
M  V30 291 H 27.4638 3.9061 0.23227 0
M  V30 292 H 27.0868 3.49422 1.89709 0
M  V30 293 N 28.0839 -0.256276 1.55502 0
M  V30 294 C 29.3609 -1.00789 1.67633 0
M  V30 295 C 29.7409 -2.03706 0.553826 0
M  V30 296 O 29.0889 -2.24145 -0.443969 0
M  V30 297 C 29.2989 -1.64968 3.07549 0
M  V30 298 C 30.6469 -2.15505 3.65845 0
M  V30 299 O 31.6709 -1.74925 3.1029 0
M  V30 300 O 30.5299 -2.89986 4.63217 0
M  V30 301 H 27.6239 -0.468553 0.681459 0
M  V30 302 H 30.1699 -0.250806 1.67836 0
M  V30 303 H 28.9419 -0.904785 3.80696 0
M  V30 304 H 28.5649 -2.47321 3.11317 0
M  V30 305 N 29.562 -1.4872 -0.521534 0
M  V30 306 C 30.809 -1.57168 -1.27689 0
M  V30 307 C 31.137 -0.249275 -1.92896 0
M  V30 308 O 30.392 0.761162 -1.80291 0
M  V30 309 C 30.691 -2.66497 -2.38148 0
M  V30 310 C 30.357 -4.08664 -1.90538 0
M  V30 311 C 29.019 -4.47357 -1.77271 0
M  V30 312 C 31.371 -4.97724 -1.54663 0
M  V30 313 C 28.699 -5.72905 -1.26478 0
M  V30 314 C 31.051 -6.2377 -1.05329 0
M  V30 315 C 29.715 -6.61311 -0.906861 0
M  V30 316 H 28.985 -0.575117 -0.467249 0
M  V30 317 H 31.632 -1.82472 -0.581051 0
M  V30 318 H 29.937 -2.35085 -3.13437 0
M  V30 319 H 31.634 -2.70246 -2.96257 0
M  V30 320 H 28.224 -3.78111 -2.01816 0
M  V30 321 H 32.408 -4.68501 -1.63768 0
M  V30 322 H 27.664 -6.00709 -1.13835 0
M  V30 323 H 31.838 -6.9217 -0.76644 0
M  V30 324 H 29.465 -7.5848 -0.511083 0
M  V30 325 N 31.0401 0.771051 -1.3745 0
M  V30 326 C 31.9501 1.91538 -1.35464 0
M  V30 327 C 32.9661 1.72134 -0.254123 0
M  V30 328 O 34.1421 1.95358 -0.489626 0
M  V30 329 C 31.2071 3.26671 -1.16134 0
M  V30 330 C 30.2681 3.58723 -2.35831 0
M  V30 331 C 29.5011 4.87409 -2.17413 0
M  V30 332 O 29.7241 5.58506 -1.15876 0
M  V30 333 O 28.6581 5.18539 -3.05615 0
M  V30 334 H 32.4841 1.96165 -2.31847 0
M  V30 335 H 30.0691 0.9139 -1.18187 0
M  V30 336 H 31.9511 4.07499 -1.07345 0
M  V30 337 H 30.6261 3.22894 -0.228251 0
M  V30 338 H 29.5331 2.78127 -2.50192 0
M  V30 339 H 30.8661 3.67243 -3.27709 0
M  V30 340 N 32.5182 1.22032 0.997298 0
M  V30 341 C 33.7662 1.04016 1.73278 0
M  V30 342 C 34.0872 -0.426255 1.90284 0
M  V30 343 O 33.3572 -1.30694 1.45931 0
M  V30 344 H 31.9372 0.381897 0.642 0
M  V30 345 H 34.5992 1.5347 1.20137 0
M  V30 346 H 33.6952 1.51441 2.72896 0
M  V30 347 N 33.9963 -1.19345 1.0293 0
M  V30 348 C 35.2733 -1.84811 0.640642 0
M  V30 349 C 35.6533 -1.91855 -0.88062 0
M  V30 350 O 35.0013 -1.43587 -1.7775 0
M  V30 351 C 35.2113 -3.23755 1.30321 0
M  V30 352 C 36.5593 -3.99912 1.42673 0
M  V30 353 O 37.5833 -3.33155 1.26041 0
M  V30 354 O 36.4423 -5.19494 1.6967 0
M  V30 355 H 33.5363 -0.796443 0.222726 0
M  V30 356 H 36.0823 -1.26831 1.12748 0
M  V30 357 H 34.8543 -3.13466 2.34211 0
M  V30 358 H 34.4773 -3.89381 0.804261 0
M  V30 359 N 35.4744 -0.807222 -1.35358 0
M  V30 360 C 36.7204 -0.397594 -1.99476 0
M  V30 361 C 37.0754 1.02405 -1.62883 0
M  V30 362 O 36.3684 1.70077 -0.882282 0
M  V30 363 C 36.5624 -0.519036 -3.53611 0
M  V30 364 C 36.3914 -1.95094 -4.05177 0
M  V30 365 C 35.1614 -2.57945 -4.34503 0
M  V30 366 C 37.3594 -2.91558 -4.23673 0
M  V30 367 N 35.3414 -3.92539 -4.72003 0
M  V30 368 C 36.7124 -4.11024 -4.64176 0
M  V30 369 C 38.7674 -2.88381 -4.05883 0
M  V30 370 C 37.4704 -5.27745 -4.88751 0
M  V30 371 C 39.4964 -4.04306 -4.31614 0
M  V30 372 C 38.8584 -5.22519 -4.72391 0
M  V30 373 H 34.9574 -0.193274 -0.75774 0
M  V30 374 H 37.5414 -1.0486 -1.6405 0
M  V30 375 H 35.7124 0.101979 -3.88266 0
M  V30 376 H 37.4444 -0.0839321 -4.04613 0
M  V30 377 H 34.1994 -2.09295 -4.24844 0
M  V30 378 H 34.6234 -4.61836 -4.95011 0
M  V30 379 H 39.2654 -1.98137 -3.73499 0
M  V30 380 H 36.9834 -6.1856 -5.20008 0
M  V30 381 H 40.5694 -4.03229 -4.19402 0
M  V30 382 H 39.4494 -6.1073 -4.91913 0
M  V30 383 N 36.9525 1.47285 -0.560781 0
M  V30 384 C 38.3685 1.58065 -0.22081 0
M  V30 385 C 38.5685 1.55892 1.27671 0
M  V30 386 O 37.6245 1.46422 2.0571 0
M  V30 387 C 38.9375 2.88418 -0.850625 0
M  V30 388 C 40.4855 3.02009 -0.822184 0
M  V30 389 C 40.9605 4.35066 -1.43113 0
M  V30 390 N 42.4515 4.41711 -1.39448 0
M  V30 391 C 43.1865 5.43237 -1.83525 0
M  V30 392 N 42.6825 6.51555 -2.35474 0
M  V30 393 N 44.4755 5.34304 -1.74574 0
M  V30 394 H 36.6265 1.46941 -1.53369 0
M  V30 395 H 38.8895 0.699558 -0.639783 0
M  V30 396 H 38.5955 2.95755 -1.9032 0
M  V30 397 H 38.4695 3.75612 -0.345773 0
M  V30 398 H 40.8565 2.94266 0.221714 0
M  V30 399 H 40.9375 2.16347 -1.36483 0
M  V30 400 H 40.5815 4.43565 -2.47412 0
M  V30 401 H 40.5115 5.19465 -0.863899 0
M  V30 402 H 43.0025 3.64027 -1.01452 0
M  V30 403 H 43.3155 7.25203 -2.67021 0
M  V30 404 H 41.6605 6.52435 -2.39487 0
M  V30 405 H 44.8515 4.48581 -1.33763 0
M  V30 406 H 45.0245 6.13288 -2.09242 0
M  V30 407 N 38.4306 0.297415 1.54768 0
M  V30 408 C 39.3606 -0.573494 2.26348 0
M  V30 409 C 40.3416 -1.14085 1.26169 0
M  V30 410 O 41.5266 -1.17086 1.54934 0
M  V30 411 C 38.6566 -1.74716 3.00153 0
M  V30 412 C 37.6106 -1.31032 4.07449 0
M  V30 413 C 36.9366 -2.56887 4.68949 0
M  V30 414 C 38.2366 -0.444183 5.20408 0
M  V30 415 H 39.9306 0.0235131 2.99391 0
M  V30 416 H 37.4766 0.0127488 1.43994 0
M  V30 417 H 39.4296 -2.3625 3.48947 0
M  V30 418 H 38.1536 -2.37035 2.24682 0
M  V30 419 H 36.8126 -0.718066 3.59499 0
M  V30 420 H 36.4606 -3.17512 3.90122 0
M  V30 421 H 36.1606 -2.2836 5.41411 0
M  V30 422 H 37.6846 -3.19229 5.20505 0
M  V30 423 H 39.0986 -0.9651 5.65118 0
M  V30 424 H 37.4956 -0.252846 5.99567 0
M  V30 425 H 38.5656 0.531609 4.81977 0
M  V30 426 N 39.9087 -1.5758 0.0250728 0
M  V30 427 C 41.1547 -1.91917 -0.655413 0
M  V30 428 C 41.4877 -0.901433 -1.72011 0
M  V30 429 O 40.7627 0.0764069 -1.9435 0
M  V30 430 C 41.0457 -3.36751 -1.27558 0
M  V30 431 C 40.8987 -4.49258 -0.220719 0
M  V30 432 C 42.2177 -3.81469 -2.19475 0
M  V30 433 H 39.3367 -0.697925 -0.23679 0
M  V30 434 H 41.9787 -1.89825 0.0815036 0
M  V30 435 H 40.1287 -3.38664 -1.90365 0
M  V30 436 H 41.8007 -4.59478 0.409601 0
M  V30 437 H 40.0437 -4.31415 0.454264 0
M  V30 438 H 40.7147 -5.47618 -0.694175 0
M  V30 439 H 43.1907 -3.81266 -1.66659 0
M  V30 440 H 42.0667 -4.83512 -2.59822 0
M  V30 441 H 42.3277 -3.16744 -3.08424 0
M  V30 442 N 41.3868 0.248026 -1.55636 0
M  V30 443 C 42.3498 1.29044 -1.89421 0
M  V30 444 C 43.3498 1.41134 -0.770581 0
M  V30 445 O 44.5398 1.39854 -1.03858 0
M  V30 446 C 41.6718 2.66831 -2.12165 0
M  V30 447 H 42.8648 1.00305 -2.82629 0
M  V30 448 H 40.4178 0.487265 -1.48511 0
M  V30 449 H 41.1528 3.00711 -1.21422 0
M  V30 450 H 40.9378 2.59438 -2.93997 0
M  V30 451 H 42.4278 3.42103 -2.3949 0
M  V30 452 N 42.8649 1.48995 0.513639 0
M  V30 453 C 44.0899 1.61792 1.29762 0
M  V30 454 C 44.5149 0.284475 1.85936 0
M  V30 455 O 43.8729 -0.746185 1.65232 0
M  V30 456 C 43.9209 2.67993 2.41272 0
M  V30 457 O 43.0249 2.26287 3.44772 0
M  V30 458 H 42.3659 0.541963 0.38363 0
M  V30 459 H 44.8959 1.95097 0.616307 0
M  V30 460 H 44.9059 2.89772 2.87221 0
M  V30 461 H 43.5809 3.64791 1.9975 0
M  V30 462 H 42.1579 2.14788 3.04829 0
M  V30 463 N 44.343 -0.763751 1.37857 0
M  V30 464 C 45.591 -1.51957 1.33243 0
M  V30 465 C 45.912 -1.94835 -0.0801709 0
M  V30 466 O 45.182 -1.66894 -1.02582 0
M  V30 467 H 43.762 -0.563626 0.49024 0
M  V30 468 H 46.424 -0.908504 1.7243 0
M  V30 469 H 45.52 -2.41523 1.97669 0
M  V30 470 N 45.8211 -1.22559 -0.990812 0
M  V30 471 C 47.0691 -1.04933 -1.72724 0
M  V30 472 C 47.3901 0.416158 -1.90508 0
M  V30 473 O 46.6601 1.29918 -1.46622 0
M  V30 474 H 45.2401 -0.385296 -0.639965 0
M  V30 475 H 47.9021 -1.54105 -1.19322 0
M  V30 476 H 46.9981 -1.52886 -2.72089 0
M  V30 477 N 47.2992 1.18797 -1.03562 0
M  V30 478 C 48.5462 1.8865 -0.736023 0
M  V30 479 C 48.8742 1.80041 0.735889 0
M  V30 480 O 48.1292 1.19179 1.55225 0
M  V30 481 C 48.4282 3.38692 -1.14117 0
M  V30 482 C 48.0942 3.67504 -2.6125 0
M  V30 483 C 46.7562 3.75078 -3.01447 0
M  V30 484 C 49.1082 3.80293 -3.56408 0
M  V30 485 C 46.4362 3.92915 -4.35701 0
M  V30 486 C 48.7882 3.99645 -4.90374 0
M  V30 487 C 47.4522 4.05453 -5.30249 0
M  V30 488 H 46.7222 0.690321 -0.26933 0
M  V30 489 H 49.3692 1.40641 -1.29971 0
M  V30 490 H 47.6742 3.88645 -0.496202 0
M  V30 491 H 49.3712 3.91072 -0.886789 0
M  V30 492 H 45.9612 3.62223 -2.29113 0
M  V30 493 H 50.1452 3.73779 -3.26501 0
M  V30 494 H 45.4012 3.95653 -4.66121 0
M  V30 495 H 49.5752 4.08482 -5.64017 0
M  V30 496 H 47.2022 4.19027 -6.34288 0
M  V30 497 N 48.7773 0.814389 1.34928 0
M  V30 498 C 50.0023 0.410097 2.03305 0
M  V30 499 C 50.4273 -0.973464 1.60951 0
M  V30 500 O 49.7853 -1.63185 0.789964 0
M  V30 501 C 49.8333 0.51049 3.56968 0
M  V30 502 O 48.9373 -0.473035 4.09678 0
M  V30 503 H 48.2783 0.170088 0.641846 0
M  V30 504 H 50.8083 1.10244 1.72358 0
M  V30 505 H 50.8183 0.383135 4.06197 0
M  V30 506 H 49.4933 1.51963 3.87144 0
M  V30 507 H 48.0703 -0.305272 3.71648 0
M  V30 508 N 50.2554 -1.46986 0.568584 0
M  V30 509 C 51.1874 -2.28233 -0.210337 0
M  V30 510 C 52.2004 -1.37682 -0.868767 0
M  V30 511 O 53.3894 -1.62406 -0.740705 0
M  V30 512 C 50.4894 -3.12293 -1.3163 0
M  V30 513 C 49.6624 -4.30878 -0.7525 0
M  V30 514 C 48.7214 -4.96445 -1.74439 0
M  V30 515 O 47.7474 -5.54482 -1.286 0
M  V30 516 N 48.9494 -4.92171 -3.07812 0
M  V30 517 H 51.7144 -2.95723 0.486648 0
M  V30 518 H 49.2754 -1.56742 0.405409 0
M  V30 519 H 51.2674 -3.53022 -1.97883 0
M  V30 520 H 49.8374 -2.46971 -1.91636 0
M  V30 521 H 49.0574 -3.94104 0.0871128 0
M  V30 522 H 50.3454 -5.07558 -0.35536 0
M  V30 523 H 49.7434 -4.46239 -3.47688 0
M  V30 524 H 48.3004 -5.36884 -3.69592 0
M  V30 525 N 51.7335 -0.305618 -1.54608 0
M  V30 526 C 52.9795 0.302746 -2.00528 0
M  V30 527 C 53.3125 1.53184 -1.19367 0
M  V30 528 O 52.5875 1.92598 -0.271321 0
M  V30 529 C 52.8705 0.654756 -3.54097 0
M  V30 530 C 52.7235 -0.583793 -4.45995 0
M  V30 531 C 54.0425 1.47947 -4.14487 0
M  V30 532 H 51.1615 0.108564 -0.72896 0
M  V30 533 H 53.8035 -0.418634 -1.85331 0
M  V30 534 H 51.9535 1.26935 -3.67178 0
M  V30 535 H 53.6255 -1.22224 -4.44814 0
M  V30 536 H 51.8685 -1.21615 -4.16404 0
M  V30 537 H 52.5395 -0.293287 -5.5122 0
M  V30 538 H 55.0155 0.96013 -4.04871 0
M  V30 539 H 53.8915 1.69454 -5.22088 0
M  V30 540 H 54.1525 2.47011 -3.66658 0
M  V30 541 N 53.2116 1.57565 -0.0334293 0
M  V30 542 C 54.4586 1.91978 0.644272 0
M  V30 543 C 54.7866 0.910231 1.71887 0
M  V30 544 O 54.0416 -0.0801961 1.95536 0
M  V30 545 C 54.3406 3.33112 1.29504 0
M  V30 546 C 54.0066 4.49537 0.350388 0
M  V30 547 C 52.6686 4.81115 0.0903974 0
M  V30 548 C 55.0206 5.20347 -0.298032 0
M  V30 549 C 52.3486 5.8086 -0.825746 0
M  V30 550 C 54.7006 6.2107 -1.20226 0
M  V30 551 C 53.3646 6.51088 -1.4711 0
M  V30 552 H 52.6346 0.702496 0.235756 0
M  V30 553 H 55.2816 1.91259 -0.0961176 0
M  V30 554 H 53.5866 3.30113 2.11028 0
M  V30 555 H 55.2836 3.57011 1.82603 0
M  V30 556 H 51.8736 4.24883 0.563205 0
M  V30 557 H 56.0576 4.96178 -0.110234 0
M  V30 558 H 51.3136 6.02461 -1.04169 0
M  V30 559 H 55.4876 6.75057 -1.71086 0
M  V30 560 H 53.1146 7.28193 -2.18264 0
M  V30 561 N 54.6897 -0.239769 1.55765 0
M  V30 562 C 55.6217 -1.32001 1.87372 0
M  V30 563 C 56.6347 -1.43944 0.760522 0
M  V30 564 O 57.8237 -1.45167 1.0387 0
M  V30 565 C 54.9237 -2.69779 2.05115 0
M  V30 566 C 54.0967 -2.80014 3.36022 0
M  V30 567 C 53.1557 -3.98684 3.4342 0
M  V30 568 O 52.1817 -3.87877 4.16582 0
M  V30 569 N 53.3837 -5.12176 2.73232 0
M  V30 570 H 56.1487 -1.0522 2.80622 0
M  V30 571 H 53.7097 -0.429857 1.56089 0
M  V30 572 H 55.7017 -3.47517 2.07399 0
M  V30 573 H 54.2717 -2.89237 1.18577 0
M  V30 574 H 53.4917 -1.88896 3.45994 0
M  V30 575 H 54.7797 -2.83808 4.22292 0
M  V30 576 H 54.1777 -5.2385 2.13536 0
M  V30 577 H 52.7347 -5.88022 2.81199 0
M  V30 578 N 56.1678 -1.49265 -0.50573 0
M  V30 579 C 57.1308 -1.65075 -1.59006 0
M  V30 580 C 58.1308 -0.522768 -1.52065 0
M  V30 581 O 59.3208 -0.789117 -1.55302 0
M  V30 582 C 56.4528 -1.64369 -2.98656 0
M  V30 583 H 57.6458 -2.61784 -1.46319 0
M  V30 584 H 55.1988 -1.38226 -0.729616 0
M  V30 585 H 55.9338 -0.692272 -3.16825 0
M  V30 586 H 55.7188 -2.46282 -3.05103 0
M  V30 587 H 57.2088 -1.78674 -3.77446 0
M  V30 588 N 57.6459 0.756429 -1.3826 0
M  V30 589 C 59.0619 1.0591 -1.19395 0
M  V30 590 C 59.2619 2.01459 -0.0406567 0
M  V30 591 O 58.3179 2.44909 0.614467 0
M  V30 592 C 59.6309 1.64191 -2.51916 0
M  V30 593 C 61.1789 1.76376 -2.58574 0
M  V30 594 C 61.6539 2.38069 -3.91264 0
M  V30 595 N 63.1449 2.45503 -3.92788 0
M  V30 596 C 63.8799 2.94126 -4.92217 0
M  V30 597 N 63.3759 3.42805 -6.02043 0
M  V30 598 N 65.1689 2.9314 -4.7961 0
M  V30 599 H 57.3199 0.122313 -2.12048 0
M  V30 600 H 59.5829 0.116892 -0.940766 0
M  V30 601 H 59.2889 1.01451 -3.3675 0
M  V30 602 H 59.1629 2.6329 -2.70108 0
M  V30 603 H 61.5499 2.38244 -1.74137 0
M  V30 604 H 61.6309 0.759894 -2.44252 0
M  V30 605 H 61.2749 1.76835 -4.76121 0
M  V30 606 H 61.2049 3.39091 -4.02895 0
M  V30 607 H 63.6959 2.1107 -3.13461 0
M  V30 608 H 64.0089 3.78354 -6.73846 0
M  V30 609 H 62.3539 3.4087 -6.05667 0
M  V30 610 H 65.5449 2.54419 -3.92923 0
M  V30 611 H 65.7179 3.30721 -5.5725 0
M  V30 612 N 59.124 1.23083 0.984299 0
M  V30 613 C 60.074 0.975749 2.06066 0
M  V30 614 C 61.058 -0.0768251 1.60716 0
M  V30 615 O 62.25 0.134805 1.76486 0
M  V30 616 C 59.379 0.564673 3.38624 0
M  V30 617 C 58.465 1.65244 3.90583 0
M  V30 618 N 58.856 2.88193 4.15666 0
M  V30 619 C 57.154 1.52612 4.19077 0
M  V30 620 C 57.855 3.58593 4.58024 0
M  V30 621 N 56.831 2.86093 4.62225 0
M  V30 622 H 60.633 1.90957 2.23411 0
M  V30 623 H 58.147 1.12963 1.16675 0
M  V30 624 H 60.144 0.36322 4.15315 0
M  V30 625 H 58.804 -0.362147 3.22674 0
M  V30 626 H 59.815 3.24537 4.03604 0
M  V30 627 H 56.492 0.666121 4.12152 0
M  V30 628 H 57.882 4.63974 4.85982 0
M  V30 629 N 60.6021 -1.18246 1.0419 0
M  V30 630 C 62.0181 -1.40269 0.761366 0
M  V30 631 C 62.2181 -1.90777 -0.648578 0
M  V30 632 O 61.2741 -2.0929 -1.41258 0
M  V30 633 C 62.5871 -2.40237 1.8085 0
M  V30 634 C 64.1351 -2.53961 1.82955 0
M  V30 635 C 64.6101 -3.57194 2.86664 0
M  V30 636 N 66.1011 -3.64702 2.85563 0
M  V30 637 C 66.8361 -4.44309 3.6246 0
M  V30 638 N 66.3321 -5.27514 4.49111 0
M  V30 639 N 68.1251 -4.39084 3.50944 0
M  V30 640 H 60.2761 -0.837882 1.95175 0
M  V30 641 H 62.5391 -0.430608 0.84456 0
M  V30 642 H 62.2451 -2.10176 2.81991 0
M  V30 643 H 62.1191 -3.39601 1.64168 0
M  V30 644 H 64.5061 -2.83338 0.824855 0
M  V30 645 H 64.5871 -1.54706 2.03715 0
M  V30 646 H 64.2311 -3.28558 3.87314 0
M  V30 647 H 64.1611 -4.5613 2.6316 0
M  V30 648 H 66.6521 -3.05289 2.22727 0
M  V30 649 H 66.9651 -5.85411 5.04493 0
M  V30 650 H 65.3101 -5.2693 4.53178 0
M  V30 651 H 68.5011 -3.7313 2.82651 0
M  V30 652 H 68.6741 -5.00883 4.11121 0
M  V30 653 N 62.0802 -0.821533 -1.34494 0
M  V30 654 C 63.4962 -0.507117 -1.51329 0
M  V30 655 C 63.6962 0.968964 -1.76673 0
M  V30 656 O 62.7522 1.75348 -1.81685 0
M  V30 657 C 64.0652 -1.36544 -2.67911 0
M  V30 658 C 65.6132 -1.36242 -2.81793 0
M  V30 659 C 66.0882 -2.2052 -4.01416 0
M  V30 660 N 67.5792 -2.18136 -4.08621 0
M  V30 661 C 68.3142 -2.80095 -5.00334 0
M  V30 662 N 67.8102 -3.51039 -5.9728 0
M  V30 663 N 69.6032 -2.69656 -4.93196 0
M  V30 664 H 61.7542 -1.77729 -1.16302 0
M  V30 665 H 64.0172 -0.757291 -0.570276 0
M  V30 666 H 63.7232 -2.41361 -2.55808 0
M  V30 667 H 63.5972 -1.02917 -3.62888 0
M  V30 668 H 65.9842 -0.322041 -2.93338 0
M  V30 669 H 66.0652 -1.73866 -1.87628 0
M  V30 670 H 65.7092 -3.24607 -3.90631 0
M  V30 671 H 65.6392 -1.80247 -4.94791 0
M  V30 672 H 68.1302 -1.6653 -3.39229 0
M  V30 673 H 68.4432 -3.95565 -6.63889 0
M  V30 674 H 66.7882 -3.55145 -5.97409 0
M  V30 675 H 69.9792 -2.13808 -4.16418 0
M  V30 676 H 70.1522 -3.1823 -5.64476 0
M  V30 677 N 63.5583 1.46682 -0.576371 0
M  V30 678 C 64.8043 2.03287 -0.0679305 0
M  V30 679 C 65.1593 1.44063 1.27529 0
M  V30 680 O 64.4523 0.593973 1.82161 0
M  V30 681 C 64.6463 3.57345 0.062886 0
M  V30 682 C 64.4753 4.31509 -1.26611 0
M  V30 683 C 63.2453 4.70664 -1.83856 0
M  V30 684 C 65.4433 4.65444 -2.18783 0
M  V30 685 N 63.4253 5.29552 -3.10561 0
M  V30 686 C 64.7963 5.24835 -3.30072 0
M  V30 687 C 66.8513 4.47375 -2.18542 0
M  V30 688 C 65.5543 5.68063 -4.41244 0
M  V30 689 C 67.5803 4.91614 -3.28739 0
M  V30 690 C 66.9423 5.51071 -4.38748 0
M  V30 691 H 63.0413 0.779083 -0.0674836 0
M  V30 692 H 65.6253 1.78918 -0.767877 0
M  V30 693 H 63.7963 3.8144 0.731988 0
M  V30 694 H 65.5283 4.00592 0.575134 0
M  V30 695 H 62.2833 4.53224 -1.37424 0
M  V30 696 H 62.7073 5.63523 -3.75195 0
M  V30 697 H 67.3493 4.00747 -1.34765 0
M  V30 698 H 65.0673 6.13672 -5.25768 0
M  V30 699 H 68.6533 4.79389 -3.29662 0
M  V30 700 H 67.5333 5.84678 -5.22611 0
M  V30 701 N 65.0364 0.313813 1.54444 0
M  V30 702 C 66.4524 -0.0391619 1.59552 0
M  V30 703 C 66.6524 -1.51322 1.33056 0
M  V30 704 O 65.7084 -2.26782 1.11022 0
M  V30 705 C 67.0214 0.370302 2.98411 0
M  V30 706 C 68.5694 0.320139 3.11358 0
M  V30 707 C 69.0444 0.704617 4.52547 0
M  V30 708 N 70.5354 0.657645 4.58508 0
M  V30 709 C 71.2704 0.927453 5.6585 0
M  V30 710 N 70.7664 1.26389 6.81174 0
M  V30 711 N 72.5594 0.853662 5.5558 0
M  V30 712 H 64.7104 1.27433 1.69925 0
M  V30 713 H 66.9734 0.517511 0.794284 0
M  V30 714 H 66.6794 1.39694 3.22767 0
M  V30 715 H 66.5534 -0.269619 3.76235 0
M  V30 716 H 68.9404 -0.697275 2.86744 0
M  V30 717 H 69.0214 0.99486 2.35661 0
M  V30 718 H 68.6654 1.7199 4.77893 0
M  V30 719 H 68.5954 0.00768843 5.26599 0
M  V30 720 H 71.0864 0.409067 3.75679 0
M  V30 721 H 71.3994 1.4554 7.58972 0
M  V30 722 H 69.7444 1.30206 6.82694 0
M  V30 723 H 72.9354 0.590383 4.64362 0
M  V30 724 H 73.1084 1.0673 6.3915 0
M  V30 725 N 66.5145 -1.57545 0.0417849 0
M  V30 726 C 67.7425 -1.96624 -0.643928 0
M  V30 727 C 68.1575 -0.918897 -1.64929 0
M  V30 728 O 67.5145 0.0979323 -1.82237 0
M  V30 729 C 67.5655 -3.35781 -1.33914 0
M  V30 730 O 67.2865 -4.365 -0.374048 0
M  V30 731 C 68.7875 -3.89566 -2.1155 0
M  V30 732 H 66.0075 -0.647316 -0.176702 0
M  V30 733 H 68.5515 -2.04229 0.105304 0
M  V30 734 H 66.7065 -3.29357 -2.03968 0
M  V30 735 H 67.1205 -5.17248 -0.869179 0
M  V30 736 H 68.5945 -4.89242 -2.55628 0
M  V30 737 H 69.0715 -3.24488 -2.9598 0
M  V30 738 H 69.6775 -3.99298 -1.46427 0
M  V30 739 N 67.9926 0.231505 -1.5589 0
M  V30 740 C 68.9026 1.308 -1.94752 0
M  V30 741 C 69.9186 1.51826 -0.849989 0
M  V30 742 O 71.0946 1.6515 -1.15271 0
M  V30 743 C 68.1596 2.63968 -2.24771 0
M  V30 744 C 67.2206 2.51331 -3.48039 0
M  V30 745 C 66.4536 3.78148 -3.76616 0
M  V30 746 O 66.6766 4.80722 -3.07022 0
M  V30 747 O 65.6106 3.75857 -4.70123 0
M  V30 748 H 69.4366 1.0083 -2.86474 0
M  V30 749 H 67.0216 0.433547 -1.42971 0
M  V30 750 H 68.9036 3.42633 -2.45318 0
M  V30 751 H 67.5786 2.9364 -1.36225 0
M  V30 752 H 66.4856 1.709 -3.32782 0
M  V30 753 H 67.8186 2.26601 -4.36936 0
M  V30 754 N 69.4707 1.49531 0.497807 0
M  V30 755 C 70.7007 1.62657 1.27382 0
M  V30 756 C 71.1087 0.298488 1.86831 0
M  V30 757 O 70.4517 -0.72647 1.68725 0
M  V30 758 C 70.5137 2.6393 2.44093 0
M  V30 759 C 70.1777 4.08195 2.05489 0
M  V30 760 C 71.1747 4.949 1.59279 0
M  V30 761 C 68.8597 4.53948 2.15026 0
M  V30 762 C 70.8537 6.25397 1.23113 0
M  V30 763 C 68.5407 5.84458 1.78473 0
M  V30 764 C 69.5387 6.70006 1.32591 0
M  V30 765 O 69.2267 7.98083 0.965327 0
M  V30 766 H 68.9587 0.550429 0.392434 0
M  V30 767 H 71.5127 1.96325 0.603801 0
M  V30 768 H 69.7427 2.25449 3.14181 0
M  V30 769 H 71.4317 2.66552 3.06113 0
M  V30 770 H 72.1977 4.60779 1.51354 0
M  V30 771 H 68.0767 3.87525 2.4969 0
M  V30 772 H 71.6207 6.92125 0.872299 0
M  V30 773 H 67.5177 6.18107 1.86048 0
M  V30 774 H 68.2857 8.11122 1.09652 0
M  V30 775 N 70.9488 -0.749086 1.3866 0
M  V30 776 C 71.9118 -1.84457 1.36045 0
M  V30 777 C 72.9118 -1.58682 0.260122 0
M  V30 778 O 74.1018 -1.66343 0.517261 0
M  V30 779 C 71.2338 -3.22008 1.11911 0
M  V30 780 H 72.4268 -1.88182 2.33512 0
M  V30 781 H 69.9798 -0.951266 1.24019 0
M  V30 782 H 70.7148 -3.2395 0.150686 0
M  V30 783 H 70.4998 -3.42111 1.91579 0
M  V30 784 H 71.9898 -4.0208 1.12788 0
M  V30 785 N 72.4269 -1.23603 -0.977757 0
M  V30 786 C 73.6759 -1.06377 -1.71368 0
M  V30 787 C 73.9889 0.399062 -1.91486 0
M  V30 788 O 75.1949 0.691312 -2.62551 0
M  V30 789 C 73.6509 -1.85512 -3.08404 0
M  V30 790 C 73.2589 -3.36141 -2.96164 0
M  V30 791 C 75.0029 -1.76783 -3.85938 0
M  V30 792 C 72.9099 -4.07659 -4.28449 0
M  V30 793 H 71.8399 -0.394452 -0.642591 0
M  V30 794 H 74.4909 -1.47594 -1.09034 0
M  V30 795 H 72.8729 -1.37103 -3.71509 0
M  V30 796 H 74.0469 -3.92056 -2.42133 0
M  V30 797 H 72.3619 -3.45712 -2.32104 0
M  V30 798 H 74.9589 -2.27526 -4.83876 0
M  V30 799 H 75.3019 -0.731116 -4.0983 0
M  V30 800 H 75.8349 -2.22818 -3.2954 0
M  V30 801 H 72.5739 -5.11648 -4.09752 0
M  V30 802 H 72.0939 -3.5653 -4.82334 0
M  V30 803 H 73.7729 -4.141 -4.97122 0
M  V30 804 N 73.905 1.17692 -1.04816 0
M  V30 805 C 74.852 2.21581 -0.645797 0
M  V30 806 C 75.822 1.62367 0.350159 0
M  V30 807 O 77.007 1.89254 0.242433 0
M  V30 808 C 74.147 3.45092 -0.0227568 0
M  V30 809 C 73.26 4.18613 -1.06709 0
M  V30 810 C 72.395 5.29602 -0.411767 0
M  V30 811 C 71.434 5.94904 -1.44067 0
M  V30 812 N 70.571 6.97414 -0.809781 0
M  V30 813 H 75.411 2.55353 -1.5362 0
M  V30 814 H 72.948 1.25438 -0.768364 0
M  V30 815 H 74.906 4.15679 0.35588 0
M  V30 816 H 73.536 3.11917 0.831122 0
M  V30 817 H 72.588 3.46779 -1.5636 0
M  V30 818 H 73.9 4.63293 -1.84827 0
M  V30 819 H 73.054 6.06696 0.0206623 0
M  V30 820 H 71.793 4.86045 0.401438 0
M  V30 821 H 70.798 5.16544 -1.88316 0
M  V30 822 H 72.023 6.40542 -2.25571 0
M  V30 823 H 69.969 6.55998 -0.0170186 0
M  V30 824 H 69.886 7.40386 -1.52856 0
M  V30 825 H 71.154 7.78463 -0.401999 0
M  V30 826 N 75.3831 0.828654 1.34056 0
M  V30 827 C 76.6231 0.425394 1.99924 0
M  V30 828 C 76.9871 -0.994294 1.64249 0
M  V30 829 O 78.1881 -1.50074 2.23005 0
M  V30 830 C 76.4591 0.628071 3.51838 0
M  V30 831 S 78.0181 0.318511 4.37642 0
M  V30 832 H 74.8361 0.160465 0.692656 0
M  V30 833 H 77.4381 1.07572 1.63244 0
M  V30 834 H 76.1421 1.66089 3.7529 0
M  V30 835 H 75.6731 -0.0367799 3.93383 0
M  V30 836 H 77.6881 -0.865632 4.88591 0
M  V30 837 N 76.8612 -1.46375 0.584142 0
M  V30 838 C 77.8242 -2.28784 -0.138108 0
M  V30 839 C 78.8242 -1.38471 -0.817462 0
M  V30 840 O 80.0142 -1.60833 -0.669199 0
M  V30 841 C 77.1462 -3.18892 -1.20503 0
M  V30 842 H 78.3392 -2.94117 0.586127 0
M  V30 843 H 75.8922 -1.52509 0.342171 0
M  V30 844 H 76.6272 -2.58309 -1.96079 0
M  V30 845 H 76.4122 -3.85388 -0.722384 0
M  V30 846 H 77.9022 -3.80914 -1.71155 0
M  V30 847 N 78.3393 -0.321999 -1.54275 0
M  V30 848 C 79.7503 0.166384 -1.85957 0
M  V30 849 C 80.1013 1.51747 -1.24367 0
M  V30 850 O 79.2263 2.09317 -0.549124 0
M  V30 851 C 79.8213 0.308681 -3.37391 0
M  V30 852 C 78.3803 0.741286 -3.69028 0
M  V30 853 C 77.5273 -0.137937 -2.76957 0
M  V30 854 H 80.4783 -0.542335 -1.49146 0
M  V30 855 H 80.4993 1.13984 -3.63026 0
M  V30 856 H 80.0113 -0.674809 -3.82188 0
M  V30 857 H 78.1123 1.73458 -3.29762 0
M  V30 858 H 78.2253 0.546118 -4.75977 0
M  V30 859 H 76.5893 0.386251 -2.51754 0
M  V30 860 H 77.3723 -1.11816 -3.2458 0
M  V30 861 N 79.8174 1.5752 -0.0501392 0
M  V30 862 C 81.0574 1.94521 0.627783 0
M  V30 863 C 81.4214 0.928265 1.68069 0
M  V30 864 O 82.6224 1.18517 2.41261 0
M  V30 865 C 80.8934 3.36319 1.20932 0
M  V30 866 S 82.4524 3.95272 1.90539 0
M  V30 867 H 79.2704 0.680456 0.206158 0
M  V30 868 H 81.8724 1.95139 -0.118829 0
M  V30 869 H 80.5764 4.08132 0.430865 0
M  V30 870 H 80.1074 3.39193 1.99277 0
M  V30 871 H 82.1224 3.80415 3.18589 0
M  V30 872 N 81.2955 -0.223234 1.56011 0
M  V30 873 C 82.2255 -1.27988 1.95298 0
M  V30 874 C 83.2065 -1.48976 0.820979 0
M  V30 875 O 84.3915 -1.61188 1.08315 0
M  V30 876 C 81.5215 -2.63 2.26822 0
M  V30 877 C 80.4755 -2.56671 3.42497 0
M  V30 878 C 79.8015 -3.95697 3.59622 0
M  V30 879 C 81.1015 -2.11601 4.77517 0
M  V30 880 H 82.7955 -0.953525 2.8381 0
M  V30 881 H 80.3415 -0.457244 1.36548 0
M  V30 882 H 82.2945 -3.37077 2.52898 0
M  V30 883 H 81.0185 -2.9732 1.35161 0
M  V30 884 H 79.6775 -1.85051 3.16467 0
M  V30 885 H 79.3255 -4.27322 2.6534 0
M  V30 886 H 79.0255 -3.92345 4.37424 0
M  V30 887 H 80.5495 -4.71438 3.88044 0
M  V30 888 H 81.9635 -2.7542 5.02809 0
M  V30 889 H 80.3605 -2.19311 5.5859 0
M  V30 890 H 81.4305 -1.06824 4.72987 0
M  V30 891 N 82.7736 -1.49793 -0.48987 0
M  V30 892 C 84.1846 -1.52914 -1.07118 0
M  V30 893 C 84.5356 -0.321738 -1.93544 0
M  V30 894 O 83.6606 0.567338 -2.08831 0
M  V30 895 C 84.2556 -2.771 -1.94938 0
M  V30 896 C 82.8146 -2.82963 -2.48212 0
M  V30 897 C 81.9616 -2.46972 -1.26096 0
M  V30 898 H 84.9126 -1.56329 -0.273289 0
M  V30 899 H 84.9336 -2.57892 -2.79771 0
M  V30 900 H 84.4456 -3.64959 -1.32009 0
M  V30 901 H 82.5466 -1.99411 -3.14748 0
M  V30 902 H 82.6596 -3.85406 -2.84603 0
M  V30 903 H 81.0236 -1.98994 -1.58976 0
M  V30 904 H 81.8066 -3.37118 -0.648581 0
M  V30 905 N 84.2517 0.741722 -1.39055 0
M  V30 906 C 85.6627 1.31966 -1.32068 0
M  V30 907 C 86.0137 1.96192 0.0180797 0
M  V30 908 O 85.1387 1.95861 0.920196 0
M  V30 909 C 85.7337 2.39954 -2.39181 0
M  V30 910 C 84.2927 2.93438 -2.35735 0
M  V30 911 C 83.4397 1.66936 -2.21422 0
M  V30 912 H 86.3907 0.539721 -1.4924 0
M  V30 913 H 86.4117 3.20182 -2.05581 0
M  V30 914 H 85.9237 1.9318 -3.36605 0
M  V30 915 H 84.0247 3.4451 -1.41929 0
M  V30 916 H 84.1377 3.4701 -3.30335 0
M  V30 917 H 82.5017 1.91016 -1.68478 0
M  V30 918 H 83.2847 1.22224 -3.20806 0
M  V30 919 N 85.7298 1.2412 0.971189 0
M  V30 920 C 87.0068 0.986867 1.6888 0
M  V30 921 C 87.3868 -0.491857 2.0529 0
M  V30 922 O 86.7348 -1.46531 1.75331 0
M  V30 923 C 86.9448 1.9063 2.92338 0
M  V30 924 C 88.2928 2.17515 3.64654 0
M  V30 925 O 89.3168 1.88254 3.02388 0
M  V30 926 O 88.1758 2.6719 4.7673 0
M  V30 927 H 85.2698 0.372944 0.738134 0
M  V30 928 H 87.8158 1.35203 1.02559 0
M  V30 929 H 86.5878 2.90552 2.62097 0
M  V30 930 H 86.2108 1.54408 3.66393 0
M  V30 931 N 87.2079 -1.17134 1.05439 0
M  V30 932 C 88.1709 -2.19439 0.661764 0
M  V30 933 C 89.1709 -1.58199 -0.288042 0
M  V30 934 O 90.3609 -1.74053 -0.0715803 0
M  V30 935 C 87.4929 -3.40889 -0.0276209 0
M  V30 936 H 88.6859 -2.55688 1.56728 0
M  V30 937 H 86.2389 -1.31259 0.848567 0
M  V30 938 H 86.9739 -3.10187 -0.94629 0
M  V30 939 H 86.7589 -3.86586 0.655238 0
M  V30 940 H 88.2489 -4.16603 -0.288342 0
M  V30 941 N 88.686 -0.835752 -1.33615 0
M  V30 942 C 89.649 -0.272 -2.2758 0
M  V30 943 C 90.649 0.557487 -1.50827 0
M  V30 944 O 91.839 0.37173 -1.70188 0
M  V30 945 C 88.971 0.617173 -3.35267 0
M  V30 946 H 90.164 -1.10111 -2.78954 0
M  V30 947 H 87.717 -0.608594 -1.43965 0
M  V30 948 H 88.452 1.46884 -2.89129 0
M  V30 949 H 88.237 0.0237066 -3.92093 0
M  V30 950 H 89.727 1.005 -4.05326 0
M  V30 951 N 90.1641 1.46063 -0.591896 0
M  V30 952 C 91.3891 2.07226 -0.0850314 0
M  V30 953 C 91.8141 1.43625 1.21463 0
M  V30 954 O 91.1721 0.523305 1.73583 0
M  V30 955 C 91.2201 3.60554 0.0576567 0
M  V30 956 O 90.3241 3.97128 1.11188 0
M  V30 957 H 89.6651 0.660615 -0.0669568 0
M  V30 958 H 92.1951 1.8756 -0.81745 0
M  V30 959 H 92.2051 4.07165 0.2609 0
M  V30 960 H 90.8801 4.06235 -0.891416 0
M  V30 961 H 89.4571 3.62213 0.886356 0
M  V30 962 N 91.6422 0.330177 1.54103 0
M  V30 963 C 92.8672 -0.274893 2.0557 0
M  V30 964 C 93.2922 -1.44487 1.20437 0
M  V30 965 O 92.6502 -1.80021 0.214991 0
M  V30 966 C 92.6982 -0.68079 3.54115 0
M  V30 967 O 91.8022 -1.7824 3.71893 0
M  V30 968 H 91.1432 -0.0483849 0.662235 0
M  V30 969 H 93.6732 0.480508 1.98878 0
M  V30 970 H 93.6832 -0.961635 3.96505 0
M  V30 971 H 92.3582 0.174903 4.15532 0
M  V30 972 H 90.9352 -1.49985 3.41407 0
M  V30 973 N 93.1203 -1.57491 0.0584922 0
M  V30 974 C 94.3973 -1.84346 -0.653918 0
M  V30 975 C 94.7773 -0.948355 -1.88599 0
M  V30 976 O 94.1253 -0.0112403 -2.28497 0
M  V30 977 C 94.3353 -3.34239 -1.00425 0
M  V30 978 C 95.6833 -4.01431 -1.38342 0
M  V30 979 O 96.7073 -3.38907 -1.09637 0
M  V30 980 O 95.5663 -5.11683 -1.91943 0
M  V30 981 H 92.6603 -0.761112 -0.323478 0
M  V30 982 H 95.2063 -1.6947 0.0884125 0
M  V30 983 H 93.9783 -3.91089 -0.128625 0
M  V30 984 H 93.6013 -3.54329 -1.80378 0
M  V30 985 N 94.5984 0.214957 -1.56127 0
M  V30 986 C 95.8444 0.939762 -1.79712 0
M  V30 987 C 96.1774 1.83723 -0.629247 0
M  V30 988 O 95.4524 1.90925 0.371197 0
M  V30 989 C 95.7354 1.77306 -3.13424 0
M  V30 990 C 95.5884 0.90164 -4.40671 0
M  V30 991 C 96.9074 2.74956 -3.43638 0
M  V30 992 H 94.0264 0.340214 -0.653776 0
M  V30 993 H 96.6684 0.20824 -1.88855 0
M  V30 994 H 94.8184 2.39673 -3.0576 0
M  V30 995 H 96.4904 0.294206 -4.60361 0
M  V30 996 H 94.7334 0.207368 -4.33304 0
M  V30 997 H 95.4044 1.51923 -5.30682 0
M  V30 998 H 97.8804 2.22724 -3.51473 0
M  V30 999 H 96.7564 3.30358 -4.38355 0
M  V30 1000 H 97.0174 3.53023 -2.66134 0
M  V30 1001 N 96.0765 1.50051 0.48192 0
M  V30 1002 C 97.0245 1.68635 1.60203 0
M  V30 1003 C 98.0185 0.552184 1.60148 0
M  V30 1004 O 99.2245 0.732377 1.64427 0
M  V30 1005 H 95.5995 0.532081 0.531407 0
M  V30 1006 H 97.5705 2.62616 1.41688 0
M  V30 1007 C 96.3195 1.78775 2.9822 0
M  V30 1008 H 95.6425 2.6543 2.98976 0
M  V30 1009 H 97.0825 1.95806 3.7608 0
M  V30 1010 C 95.5415 0.536849 3.32595 0
M  V30 1011 O 96.0715 -0.328897 4.00351 0
M  V30 1012 N 94.2775 0.394091 2.87915 0
M  V30 1013 H 93.8245 1.09962 2.32951 0
M  V30 1014 H 93.7825 -0.441737 3.11281 0
M  V30 1015 N 97.5546 -0.734337 1.39446 0
M  V30 1016 C 98.7846 -1.52137 1.39778 0
M  V30 1017 C 99.1926 -1.89198 -0.00929312 0
M  V30 1018 O 98.5356 -1.54666 -0.991168 0
M  V30 1019 C 98.5976 -2.83762 2.20724 0
M  V30 1020 C 98.2616 -2.69131 3.69347 0
M  V30 1021 C 99.2586 -2.37635 4.62413 0
M  V30 1022 C 96.9436 -2.85982 4.1294 0
M  V30 1023 C 98.9376 -2.23172 5.97054 0
M  V30 1024 C 96.6246 -2.71137 5.47657 0
M  V30 1025 C 97.6226 -2.39777 6.39528 0
M  V30 1026 O 97.3106 -2.25026 7.71763 0
M  V30 1027 H 97.0426 -0.476717 0.479288 0
M  V30 1028 H 99.5966 -0.915012 1.83893 0
M  V30 1029 H 97.8266 -3.4666 1.71359 0
M  V30 1030 H 99.5156 -3.45383 2.13226 0
M  V30 1031 H 100.282 -2.24267 4.30034 0
M  V30 1032 H 96.1606 -3.09383 3.41765 0
M  V30 1033 H 99.7046 -1.98617 6.68728 0
M  V30 1034 H 95.6016 -2.84083 5.79626 0
M  V30 1035 H 96.3696 -2.40091 7.82495 0
M  V30 1036 N 99.0327 -1.24633 -0.964593 0
M  V30 1037 C 99.9627 -1.06611 -2.07741 0
M  V30 1038 C 100.944 0.0218666 -1.70086 0
M  V30 1039 O 102.129 -0.145793 -1.93652 0
M  V30 1040 C 99.2587 -0.673444 -3.40708 0
M  V30 1041 C 98.2127 -1.71054 -3.92332 0
M  V30 1042 C 97.5387 -1.17285 -5.21678 0
M  V30 1043 C 98.8387 -3.10718 -4.19824 0
M  V30 1044 H 100.533 -1.99693 -2.23076 0
M  V30 1045 H 98.0787 -0.96152 -1.07195 0
M  V30 1046 H 100.032 -0.534345 -4.17998 0
M  V30 1047 H 98.7557 0.293073 -3.25282 0
M  V30 1048 H 97.4147 -1.83791 -3.17201 0
M  V30 1049 H 97.0627 -0.196847 -5.02615 0
M  V30 1050 H 96.7627 -1.86592 -5.57187 0
M  V30 1051 H 98.2867 -1.04593 -6.01575 0
M  V30 1052 H 99.7007 -3.01192 -4.87808 0
M  V30 1053 H 98.0977 -3.77406 -4.66567 0
M  V30 1054 H 99.1677 -3.58524 -3.26479 0
M  V30 1055 N 100.511 1.16574 -1.06058 0
M  V30 1056 C 101.76 1.86385 -0.770944 0
M  V30 1057 C 102.073 1.82448 0.705129 0
M  V30 1058 O 103.279 2.47815 1.10905 0
M  V30 1059 C 101.735 3.34466 -1.32893 0
M  V30 1060 C 101.343 3.46883 -2.83507 0
M  V30 1061 C 103.087 4.09548 -1.11672 0
M  V30 1062 C 100.994 4.89036 -3.32562 0
M  V30 1063 H 99.9238 0.698181 -0.284709 0
M  V30 1064 H 102.575 1.31583 -1.27899 0
M  V30 1065 H 100.957 3.88859 -0.748662 0
M  V30 1066 H 102.131 3.02663 -3.47465 0
M  V30 1067 H 100.446 2.85232 -3.03368 0
M  V30 1068 H 103.043 5.14434 -1.45814 0
M  V30 1069 H 103.386 4.16264 -0.0549535 0
M  V30 1070 H 103.919 3.61387 -1.66265 0
M  V30 1071 H 100.658 4.87499 -4.38207 0
M  V30 1072 H 100.178 5.3389 -2.73351 0
M  V30 1073 H 101.857 5.57843 -3.2775 0
M  V30 1074 N 101.989 0.842826 1.3317 0
M  V30 1075 C 102.899 0.281444 2.32906 0
M  V30 1076 C 103.915 -0.594587 1.63526 0
M  V30 1077 O 105.091 -0.49777 1.95152 0
M  V30 1078 C 102.156 -0.530929 3.42611 0
M  V30 1079 C 101.217 0.369843 4.27704 0
M  V30 1080 C 100.45 -0.403853 5.3217 0
M  V30 1081 O 100.673 -1.63513 5.46461 0
M  V30 1082 O 99.6069 0.224199 6.01482 0
M  V30 1083 H 103.433 1.10744 2.82789 0
M  V30 1084 H 101.018 0.60545 1.36582 0
M  V30 1085 H 102.9 -0.992437 4.09547 0
M  V30 1086 H 101.575 -1.33392 2.94938 0
M  V30 1087 H 100.482 0.879275 3.6362 0
M  V30 1088 H 101.815 1.13771 4.78871 0
M  V30 1089 N 103.467 -1.45747 0.599634 0
M  V30 1090 C 104.377 -2.34262 -0.125888 0
M  V30 1091 C 105.393 -1.50768 -0.868625 0
M  V30 1092 O 106.569 -1.83592 -0.828003 0
M  V30 1093 C 103.634 -3.28252 -1.11587 0
M  V30 1094 C 102.695 -4.27651 -0.375956 0
M  V30 1095 C 101.928 -5.1715 -1.31877 0
M  V30 1096 O 102.151 -5.09916 -2.55621 0
M  V30 1097 O 101.085 -5.96286 -0.820157 0
M  V30 1098 H 104.911 -2.97688 0.601315 0
M  V30 1099 H 102.496 -1.44999 0.359934 0
M  V30 1100 H 104.378 -3.86191 -1.68626 0
M  V30 1101 H 103.053 -2.67401 -1.82424 0
M  V30 1102 H 101.96 -3.7335 0.236698 0
M  V30 1103 H 103.293 -4.91334 0.29177 0
M  V30 1104 N 104.945 -0.338344 -1.53925 0
M  V30 1105 C 105.908 0.508299 -2.23493 0
M  V30 1106 C 106.908 1.03175 -1.23335 0
M  V30 1107 O 108.098 0.921826 -1.47811 0
M  V30 1108 C 105.23 1.70754 -2.95052 0
M  V30 1109 H 106.423 -0.100058 -2.99733 0
M  V30 1110 H 103.976 -0.0896198 -1.56043 0
M  V30 1111 H 104.711 2.35474 -2.22986 0
M  V30 1112 H 104.496 1.33946 -3.68512 0
M  V30 1113 H 105.986 2.30818 -3.48013 0
M  V30 1114 N 106.423 1.57458 -0.0668435 0
M  V30 1115 C 107.386 2.11323 0.887422 0
M  V30 1116 C 108.386 1.03618 1.22964 0
M  V30 1117 O 109.576 1.29626 1.16373 0
M  V30 1118 C 106.708 2.61048 2.19242 0
M  V30 1119 H 107.901 2.96942 0.420194 0
M  V30 1120 H 105.454 1.55239 0.181793 0
M  V30 1121 H 106.189 1.78868 2.70512 0
M  V30 1122 H 105.974 3.39769 1.95702 0
M  V30 1123 H 107.464 3.02814 2.87565 0
M  V30 1124 N 107.901 -0.206675 1.56239 0
M  V30 1125 C 108.848 -1.25617 1.93621 0
M  V30 1126 C 109.818 -1.45824 0.795274 0
M  V30 1127 O 111.003 -1.59148 1.05245 0
M  V30 1128 C 108.143 -2.59839 2.27107 0
M  V30 1129 C 107.256 -2.47308 3.54207 0
M  V30 1130 C 106.391 -3.74155 3.7707 0
M  V30 1131 C 105.43 -3.56407 4.97635 0
M  V30 1132 N 104.567 -4.75238 5.1681 0
M  V30 1133 H 109.407 -0.930383 2.83104 0
M  V30 1134 H 106.944 -0.448065 1.4011 0
M  V30 1135 H 108.902 -3.38021 2.44535 0
M  V30 1136 H 107.532 -2.90485 1.40778 0
M  V30 1137 H 106.584 -1.60483 3.4489 0
M  V30 1138 H 107.896 -2.30122 4.42544 0
M  V30 1139 H 107.05 -4.60778 3.94675 0
M  V30 1140 H 105.789 -3.94282 2.87042 0
M  V30 1141 H 104.794 -2.68168 4.79964 0
M  V30 1142 H 106.019 -3.37736 5.89161 0
M  V30 1143 H 103.965 -4.95651 4.29728 0
M  V30 1144 H 103.882 -4.60835 5.99306 0
M  V30 1145 H 105.15 -5.63246 5.38864 0
M  V30 1146 N 109.379 -1.50304 -0.473955 0
M  V30 1147 C 110.312 -1.63595 -1.59097 0
M  V30 1148 C 111.29 -0.484142 -1.55225 0
M  V30 1149 O 112.474 -0.703271 -1.7489 0
M  V30 1150 C 109.601 -1.61589 -2.97669 0
M  V30 1151 C 108.647 -2.82295 -3.19705 0
M  V30 1152 S 109.48 -4.43635 -2.99913 0
M  V30 1153 C 110.636 -4.44317 -4.40832 0
M  V30 1154 H 110.869 -2.58082 -1.47583 0
M  V30 1155 H 108.402 -1.39531 -0.661087 0
M  V30 1156 H 110.36 -1.61116 -3.7756 0
M  V30 1157 H 109.021 -0.683421 -3.06575 0
M  V30 1158 H 108.214 -2.77188 -4.20931 0
M  V30 1159 H 107.816 -2.8032 -2.47582 0
M  V30 1160 H 110.108 -4.17703 -5.33414 0
M  V30 1161 H 111.051 -5.45911 -4.50984 0
M  V30 1162 H 111.459 -3.74059 -4.22777 0
M  V30 1163 N 110.857 0.726932 -1.39834 0
M  V30 1164 C 111.804 1.841 -1.39197 0
M  V30 1165 C 112.774 1.642 -0.250502 0
M  V30 1166 O 113.959 1.85494 -0.446846 0
M  V30 1167 C 111.099 3.21697 -1.24919 0
M  V30 1168 C 110.212 3.53247 -2.48678 0
M  V30 1169 C 109.347 4.80289 -2.26928 0
M  V30 1170 C 108.386 5.04707 -3.4632 0
M  V30 1171 N 107.523 6.22956 -3.23836 0
M  V30 1172 H 112.363 1.83979 -2.34427 0
M  V30 1173 H 109.9 0.898876 -1.16442 0
M  V30 1174 H 111.858 4.01137 -1.1465 0
M  V30 1175 H 110.488 3.21076 -0.333153 0
M  V30 1176 H 109.54 2.68447 -2.69519 0
M  V30 1177 H 110.852 3.67205 -3.37582 0
M  V30 1178 H 110.006 5.67725 -2.13947 0
M  V30 1179 H 108.745 4.68519 -1.35431 0
M  V30 1180 H 107.75 4.1573 -3.5979 0
M  V30 1181 H 108.975 5.18357 -4.38729 0
M  V30 1182 H 106.921 6.12459 -2.35011 0
M  V30 1183 H 106.838 6.37539 -4.063 0
M  V30 1184 H 108.106 7.1321 -3.14566 0
M  V30 1185 N 112.336 1.25143 0.95797 0
M  V30 1186 C 113.283 1.05235 2.05412 0
M  V30 1187 C 114.253 -0.0374561 1.66058 0
M  V30 1188 O 115.438 0.119073 1.90428 0
M  V30 1189 C 112.578 0.673589 3.38462 0
M  V30 1190 C 111.691 1.8379 3.90954 0
M  V30 1191 C 110.826 1.40381 5.12315 0
M  V30 1192 C 109.865 2.53746 5.57027 0
M  V30 1193 N 109.002 2.11136 6.69601 0
M  V30 1194 H 113.842 1.99048 2.21774 0
M  V30 1195 H 111.379 0.991277 1.08683 0
M  V30 1196 H 113.337 0.434964 4.14926 0
M  V30 1197 H 111.967 -0.227554 3.21997 0
M  V30 1198 H 111.019 2.18992 3.11041 0
M  V30 1199 H 112.331 2.68937 4.20089 0
M  V30 1200 H 111.485 1.12464 5.96185 0
M  V30 1201 H 110.224 0.523015 4.84887 0
M  V30 1202 H 109.229 2.82412 4.71724 0
M  V30 1203 H 110.454 3.42398 5.86464 0
M  V30 1204 H 108.4 1.25468 6.4389 0
M  V30 1205 H 108.317 2.89832 6.98236 0
M  V30 1206 H 109.585 1.86385 7.56889 0
M  V30 1207 N 113.814 -1.1601 1.06675 0
M  V30 1208 C 115.063 -1.85973 0.780818 0
M  V30 1209 C 115.376 -1.82819 -0.695444 0
M  V30 1210 O 116.582 -2.484 -1.09589 0
M  V30 1211 C 115.038 -3.33757 1.34665 0
M  V30 1212 C 114.646 -3.45374 2.85343 0
M  V30 1213 C 116.39 -4.0895 1.13843 0
M  V30 1214 C 114.297 -4.87266 3.35151 0
M  V30 1215 H 113.227 -0.696661 0.288407 0
M  V30 1216 H 115.878 -1.30903 1.28595 0
M  V30 1217 H 114.26 -3.88456 0.769274 0
M  V30 1218 H 115.434 -3.00816 3.49065 0
M  V30 1219 H 113.749 -2.83619 3.04876 0
M  V30 1220 H 116.346 -5.13654 1.4854 0
M  V30 1221 H 116.689 -4.16229 0.0770282 0
M  V30 1222 H 117.222 -3.605 1.68179 0
M  V30 1223 H 113.961 -4.85168 4.40786 0
M  V30 1224 H 113.481 -5.32433 2.76179 0
M  V30 1225 H 115.16 -5.56097 3.30704 0
M  V30 1226 N 115.292 -0.849877 -1.32721 0
M  V30 1227 C 116.239 -0.289033 -2.28983 0
M  V30 1228 C 117.209 0.601324 -1.54833 0
M  V30 1229 O 118.394 0.537253 -1.8308 0
M  V30 1230 C 115.534 0.520623 -3.4115 0
M  V30 1231 C 114.647 -0.394989 -4.3019 0
M  V30 1232 C 113.782 0.426834 -5.29482 0
M  V30 1233 C 112.821 -0.486476 -6.10164 0
M  V30 1234 N 111.958 0.297879 -7.01468 0
M  V30 1235 H 116.798 -1.11519 -2.76347 0
M  V30 1236 H 114.335 -0.56138 -1.35967 0
M  V30 1237 H 116.293 1.00563 -4.04899 0
M  V30 1238 H 114.923 1.31165 -2.9495 0
M  V30 1239 H 113.975 -0.99836 -3.67065 0
M  V30 1240 H 115.287 -1.09612 -4.86607 0
M  V30 1241 H 114.441 0.975205 -5.98811 0
M  V30 1242 H 113.18 1.16136 -4.73671 0
M  V30 1243 H 112.185 -1.04677 -5.39743 0
M  V30 1244 H 113.41 -1.21953 -6.6806 0
M  V30 1245 H 111.356 1.01558 -6.48091 0
M  V30 1246 H 111.273 -0.344318 -7.55216 0
M  V30 1247 H 112.541 0.828131 -7.75089 0
M  V30 1248 N 116.77 1.45427 -0.607355 0
M  V30 1249 C 118.017 2.02241 -0.102455 0
M  V30 1250 C 118.345 1.4758 1.26691 0
M  V30 1251 O 117.6 0.640468 1.84923 0
M  V30 1252 C 117.899 3.57398 -0.0129263 0
M  V30 1253 C 117.565 4.3121 -1.31792 0
M  V30 1254 C 116.227 4.51092 -1.67539 0
M  V30 1255 C 118.579 4.73401 -2.18039 0
M  V30 1256 C 115.907 5.10422 -2.89285 0
M  V30 1257 C 118.259 5.34078 -3.39034 0
M  V30 1258 C 116.923 5.52184 -3.75033 0
M  V30 1259 H 116.193 0.740051 -0.037491 0
M  V30 1260 H 118.84 1.74494 -0.788926 0
M  V30 1261 H 117.145 3.84421 0.756806 0
M  V30 1262 H 118.842 3.99061 0.393881 0
M  V30 1263 H 115.432 4.16047 -1.02968 0
M  V30 1264 H 119.616 4.57774 -1.91721 0
M  V30 1265 H 114.872 5.22629 -3.17283 0
M  V30 1266 H 119.046 5.65724 -4.06115 0
M  V30 1267 H 116.673 5.97925 -4.69457 0
M  V30 1268 N 118.248 0.346503 1.53744 0
M  V30 1269 C 119.18 -0.543316 2.22667 0
M  V30 1270 C 120.193 -1.06159 1.23427 0
M  V30 1271 O 121.382 -0.971235 1.49764 0
M  V30 1272 C 118.482 -1.76076 2.89569 0
M  V30 1273 C 117.655 -1.37727 4.15151 0
M  V30 1274 C 116.714 -2.45471 4.65436 0
M  V30 1275 O 115.74 -2.08655 5.29577 0
M  V30 1276 N 116.942 -3.7677 4.41616 0
M  V30 1277 H 119.707 0.0469703 2.99663 0
M  V30 1278 H 117.268 0.170766 1.60997 0
M  V30 1279 H 119.26 -2.47593 3.20125 0
M  V30 1280 H 117.83 -2.25835 2.16142 0
M  V30 1281 H 117.05 -0.492746 3.91108 0
M  V30 1282 H 118.338 -1.09708 4.96832 0
M  V30 1283 H 117.736 -4.09467 3.90325 0
M  V30 1284 H 116.293 -4.44448 4.7677 0
M  V30 1285 N 119.726 -1.57421 0.075193 0
M  V30 1286 C 120.676 -2.09441 -0.901025 0
M  V30 1287 C 121.66 -1.00486 -1.25663 0
M  V30 1288 O 122.852 -1.2679 -1.23504 0
M  V30 1289 C 119.981 -2.66233 -2.16737 0
M  V30 1290 C 119.067 -3.82198 -1.83808 0
M  V30 1291 N 119.458 -4.91028 -1.21345 0
M  V30 1292 C 117.756 -3.91558 -2.13538 0
M  V30 1293 C 118.457 -5.71852 -1.06585 0
M  V30 1294 N 117.433 -5.20233 -1.57667 0
M  V30 1295 H 121.235 -2.90972 -0.413815 0
M  V30 1296 H 118.749 -1.6189 -0.128601 0
M  V30 1297 H 120.746 -3.01819 -2.87595 0
M  V30 1298 H 119.406 -1.8615 -2.66042 0
M  V30 1299 H 120.417 -5.10323 -0.88268 0
M  V30 1300 H 117.094 -3.22454 -2.65197 0
M  V30 1301 H 118.484 -6.69401 -0.578933 0
M  V30 1302 N 121.204 0.198386 -1.56346 0
M  V30 1303 C 122.453 0.917451 -1.79627 0
M  V30 1304 C 122.766 1.8456 -0.64784 0
M  V30 1305 O 123.972 2.60504 -0.764859 0
M  V30 1306 C 122.428 1.68175 -3.18191 0
M  V30 1307 C 122.036 0.798589 -4.40825 0
M  V30 1308 C 123.78 2.39065 -3.50782 0
M  V30 1309 C 121.687 1.56157 -5.70411 0
M  V30 1310 H 120.617 0.346317 -0.669762 0
M  V30 1311 H 123.268 0.170801 -1.82703 0
M  V30 1312 H 121.65 2.47216 -3.09354 0
M  V30 1313 H 122.824 0.0470665 -4.60776 0
M  V30 1314 H 121.139 0.200686 -4.15916 0
M  V30 1315 H 123.736 2.96692 -4.44835 0
M  V30 1316 H 124.079 3.13091 -2.74371 0
M  V30 1317 H 124.612 1.66993 -3.61052 0
M  V30 1318 H 121.351 0.864142 -6.49779 0
M  V30 1319 H 120.871 2.2871 -5.54483 0
M  V30 1320 H 122.55 2.11622 -6.11412 0
M  V30 1321 N 122.682 1.50554 0.465978 0
M  V30 1322 C 123.928 1.62038 1.21949 0
M  V30 1323 C 124.261 0.322116 1.9151 0
M  V30 1324 O 123.536 -0.676723 1.82348 0
M  V30 1325 C 123.819 2.80421 2.25912 0
M  V30 1326 C 123.672 4.20144 1.60622 0
M  V30 1327 C 124.991 2.94354 3.27176 0
M  V30 1328 H 122.11 0.589752 0.441998 0
M  V30 1329 H 124.752 1.82956 0.51257 0
M  V30 1330 H 122.902 2.62717 2.86203 0
M  V30 1331 H 124.574 4.49449 1.03889 0
M  V30 1332 H 122.817 4.24165 0.909211 0
M  V30 1333 H 123.488 4.98914 2.36196 0
M  V30 1334 H 125.964 3.10578 2.76913 0
M  V30 1335 H 124.84 3.788 3.97242 0
M  V30 1336 H 125.101 2.05186 3.916 0
M  V30 1337 N 124.16 -0.719506 1.40217 0
M  V30 1338 C 125.385 -1.51371 1.4178 0
M  V30 1339 C 125.81 -1.88091 0.0182355 0
M  V30 1340 O 125.168 -1.52997 -0.972707 0
M  V30 1341 C 125.216 -2.768 2.31115 0
M  V30 1342 O 124.32 -3.73349 1.7517 0
M  V30 1343 H 123.661 -0.456529 0.482159 0
M  V30 1344 H 126.191 -0.88644 1.844 0
M  V30 1345 H 126.201 -3.25371 2.46167 0
M  V30 1346 H 124.876 -2.49407 3.3282 0
M  V30 1347 H 123.453 -3.32179 1.69444 0
M  V30 1348 N 125.638 -1.25649 -0.95132 0
M  V30 1349 C 126.887 -1.09988 -1.69073 0
M  V30 1350 C 127.2 0.358355 -1.92289 0
M  V30 1351 O 128.406 0.635466 -2.63958 0
M  V30 1352 C 126.862 -1.92012 -3.044 0
M  V30 1353 C 126.47 -3.42347 -2.88968 0
M  V30 1354 C 128.214 -1.8493 -3.82101 0
M  V30 1355 C 126.121 -4.16655 -4.19705 0
M  V30 1356 H 125.051 -0.407993 -0.63408 0
M  V30 1357 H 127.702 -1.49873 -1.05879 0
M  V30 1358 H 126.084 -1.44952 -3.68517 0
M  V30 1359 H 127.258 -3.97104 -2.33762 0
M  V30 1360 H 125.573 -3.50557 -2.24719 0
M  V30 1361 H 128.17 -2.37739 -4.78941 0
M  V30 1362 H 128.513 -0.817883 -4.08187 0
M  V30 1363 H 129.046 -2.29758 -3.2474 0
M  V30 1364 H 125.785 -5.20224 -3.98807 0
M  V30 1365 H 125.305 -3.66681 -4.74663 0
M  V30 1366 H 126.984 -4.24551 -4.88227 0
M  V30 1367 N 127.117 1.15442 -1.07289 0
M  V30 1368 C 128.347 1.89821 -0.815576 0
M  V30 1369 C 128.755 1.7823 0.634867 0
M  V30 1370 O 128.098 1.13152 1.44715 0
M  V30 1371 C 128.16 3.40817 -1.14385 0
M  V30 1372 C 127.824 3.76193 -2.59476 0
M  V30 1373 C 128.821 3.77269 -3.57721 0
M  V30 1374 C 126.506 4.0652 -2.95037 0
M  V30 1375 C 128.5 4.08176 -4.89562 0
M  V30 1376 C 126.187 4.37092 -4.27076 0
M  V30 1377 C 127.185 4.37902 -5.24148 0
M  V30 1378 O 126.873 4.67741 -6.53815 0
M  V30 1379 H 126.605 0.608465 -0.294528 0
M  V30 1380 H 129.159 1.472 -1.43252 0
M  V30 1381 H 127.389 3.83835 -0.469865 0
M  V30 1382 H 129.078 3.96485 -0.869179 0
M  V30 1383 H 129.844 3.5394 -3.3159 0
M  V30 1384 H 125.723 4.05049 -2.20128 0
M  V30 1385 H 129.267 4.08723 -5.65324 0
M  V30 1386 H 125.164 4.59889 -4.5296 0
M  V30 1387 H 125.932 4.85509 -6.58957 0
M  V30 1388 N 128.595 0.856903 1.32268 0
M  V30 1389 C 129.843 0.460474 1.96784 0
M  V30 1390 C 130.164 -0.987701 1.68135 0
M  V30 1391 O 129.434 -1.69058 0.989765 0
M  V30 1392 H 128.014 0.167289 0.728027 0
M  V30 1393 H 130.676 1.09383 1.61312 0
M  V30 1394 H 129.772 0.60739 3.06133 0
M  V30 1395 N 130.073 -1.45103 0.615059 0
M  V30 1396 C 131.319 -2.02483 0.113347 0
M  V30 1397 C 131.652 -1.48146 -1.25564 0
M  V30 1398 O 130.927 -0.659104 -1.82992 0
M  V30 1399 C 131.21 -3.60005 0.0825278 0
M  V30 1400 C 131.063 -4.2466 1.48271 0
M  V30 1401 C 132.382 -4.35972 -0.601401 0
M  V30 1402 H 129.501 -0.735764 0.0426632 0
M  V30 1403 H 132.143 -1.72868 0.788461 0
M  V30 1404 H 130.293 -3.85367 -0.492378 0
M  V30 1405 H 131.965 -4.10458 2.10527 0
M  V30 1406 H 130.208 -3.82772 2.04127 0
M  V30 1407 H 130.879 -5.336 1.41332 0
M  V30 1408 H 133.355 -4.15947 -0.112666 0
M  V30 1409 H 132.231 -5.45697 -0.592097 0
M  V30 1410 H 132.492 -4.09391 -1.66887 0
M  V30 1411 N 131.551 -0.354651 -1.53558 0
M  V30 1412 C 132.791 0.238651 -2.03002 0
M  V30 1413 C 133.155 1.46878 -1.23656 0
M  V30 1414 O 134.356 2.13699 -1.63053 0
M  V30 1415 C 132.627 0.534175 -3.53386 0
M  V30 1416 S 134.186 1.10271 -4.24719 0
M  V30 1417 H 131.004 0.0702908 -0.707517 0
M  V30 1418 H 133.606 -0.494987 -1.8913 0
M  V30 1419 H 132.31 -0.368765 -4.0874 0
M  V30 1420 H 131.841 1.29718 -3.71398 0
M  V30 1421 H 133.856 2.38772 -4.34974 0
M  V30 1422 N 133.029 1.57378 -0.0835403 0
M  V30 1423 C 133.976 2.13384 0.879539 0
M  V30 1424 C 134.946 1.04936 1.28754 0
M  V30 1425 O 136.131 1.32662 1.37133 0
M  V30 1426 C 133.271 2.70932 2.13752 0
M  V30 1427 C 132.384 3.93575 1.7811 0
M  V30 1428 C 131.519 4.39326 2.98607 0
M  V30 1429 C 130.558 5.54587 2.59037 0
M  V30 1430 N 129.695 5.95243 3.72331 0
M  V30 1431 H 134.535 2.9537 0.395076 0
M  V30 1432 H 132.072 1.45953 0.183349 0
M  V30 1433 H 134.03 3.02411 2.87408 0
M  V30 1434 H 132.66 1.91693 2.59718 0
M  V30 1435 H 131.712 3.68483 0.94469 0
M  V30 1436 H 133.024 4.77258 1.45005 0
M  V30 1437 H 132.178 4.72528 3.80529 0
M  V30 1438 H 130.917 3.5452 3.34913 0
M  V30 1439 H 129.922 5.21024 1.75539 0
M  V30 1440 H 131.147 6.41133 2.23887 0
M  V30 1441 H 129.093 5.13385 4.08378 0
M  V30 1442 H 129.01 6.73694 3.43034 0
M  V30 1443 H 130.278 6.33072 4.54797 0
M  V30 1444 N 134.507 -0.190092 1.56449 0
M  V30 1445 C 135.439 -1.25973 1.91477 0
M  V30 1446 C 136.452 -1.41452 0.805931 0
M  V30 1447 O 137.641 -1.41789 1.08435 0
M  V30 1448 C 134.741 -2.63117 2.13594 0
M  V30 1449 C 133.914 -2.69182 3.4476 0
M  V30 1450 C 132.973 -3.87557 3.5593 0
M  V30 1451 O 131.999 -3.74427 4.28711 0
M  V30 1452 N 133.201 -5.03224 2.89388 0
M  V30 1453 H 135.966 -0.962394 2.83828 0
M  V30 1454 H 133.527 -0.379981 1.57378 0
M  V30 1455 H 135.519 -3.40742 2.1835 0
M  V30 1456 H 134.089 -2.85319 1.27719 0
M  V30 1457 H 133.309 -1.77793 3.51828 0
M  V30 1458 H 134.597 -2.70229 4.31107 0
M  V30 1459 H 133.995 -5.16791 2.30094 0
M  V30 1460 H 132.552 -5.78778 2.99764 0
M  V30 1461 N 135.985 -1.50799 -0.457987 0
M  V30 1462 C 137.396 -1.55152 -1.0385 0
M  V30 1463 C 137.747 -0.362719 -1.92818 0
M  V30 1464 O 136.872 0.522915 -2.09987 0
M  V30 1465 C 137.467 -2.81173 -1.89017 0
M  V30 1466 C 136.026 -2.88164 -2.42154 0
M  V30 1467 C 135.173 -2.49591 -1.20829 0
M  V30 1468 H 138.124 -1.56874 -0.240068 0
M  V30 1469 H 138.145 -2.63769 -2.74238 0
M  V30 1470 H 137.657 -3.67677 -1.24238 0
M  V30 1471 H 135.758 -2.06042 -3.10447 0
M  V30 1472 H 135.871 -3.91356 -2.76364 0
M  V30 1473 H 134.235 -2.02322 -1.54719 0
M  V30 1474 H 135.018 -3.38418 -0.576927 0
M  V30 1475 N 137.463 0.71206 -1.40597 0
M  V30 1476 C 138.393 1.83889 -1.43899 0
M  V30 1477 C 139.374 1.67442 -0.299504 0
M  V30 1478 O 140.559 1.87421 -0.508624 0
M  V30 1479 C 137.689 3.21877 -1.30431 0
M  V30 1480 C 136.643 3.53002 -2.42019 0
M  V30 1481 C 135.969 4.90172 -2.13626 0
M  V30 1482 C 137.269 3.53643 -3.84362 0
M  V30 1483 H 138.963 1.81383 -2.38203 0
M  V30 1484 H 136.509 0.871237 -1.14654 0
M  V30 1485 H 138.462 4.00404 -1.31357 0
M  V30 1486 H 137.186 3.24968 -0.326049 0
M  V30 1487 H 135.845 2.76818 -2.40349 0
M  V30 1488 H 135.493 4.89869 -1.14182 0
M  V30 1489 H 135.193 5.11962 -2.88389 0
M  V30 1490 H 136.717 5.71028 -2.1624 0
M  V30 1491 H 138.131 4.22203 -3.87837 0
M  V30 1492 H 136.528 3.86961 -4.58673 0
M  V30 1493 H 137.598 2.52954 -4.13693 0
M  V30 1494 N 138.941 1.26152 0.944643 0
M  V30 1495 C 140.189 1.11271 1.6871 0
M  V30 1496 C 140.51 -0.345166 1.91921 0
M  V30 1497 O 139.78 -1.24387 1.51343 0
M  V30 1498 H 138.36 0.408783 0.625224 0
M  V30 1499 H 141.022 1.58427 1.1352 0
M  V30 1500 H 140.118 1.62879 2.66227 0
M  V30 1501 N 140.419 -1.14872 1.07899 0
M  V30 1502 C 141.668 -1.85135 0.800499 0
M  V30 1503 C 141.981 -1.83547 -0.676014 0
M  V30 1504 O 143.187 -2.49548 -1.06948 0
M  V30 1505 C 141.643 -3.3231 1.38197 0
M  V30 1506 C 141.251 -3.42329 2.8899 0
M  V30 1507 C 142.995 -4.0772 1.18174 0
M  V30 1508 C 140.902 -4.83684 3.403 0
M  V30 1509 H 139.832 -0.693563 0.29578 0
M  V30 1510 H 142.483 -1.29532 1.29976 0
M  V30 1511 H 140.865 -3.87618 0.810431 0
M  V30 1512 H 142.039 -2.97097 3.52236 0
M  V30 1513 H 140.354 -2.80369 3.07867 0
M  V30 1514 H 142.951 -5.12049 1.5398 0
M  V30 1515 H 143.294 -4.16124 0.12117 0
M  V30 1516 H 143.827 -3.58696 1.71994 0
M  V30 1517 H 140.566 -4.80465 4.45907 0
M  V30 1518 H 140.086 -5.29474 2.81811 0
M  V30 1519 H 141.765 -5.52558 3.36584 0
M  V30 1520 N 141.898 -0.863906 -1.31812 0
M  V30 1521 C 143.144 -0.472535 -1.97218 0
M  V30 1522 C 143.477 0.971394 -1.68159 0
M  V30 1523 O 142.752 1.68309 -0.974798 0
M  V30 1524 C 143.035 -0.723054 -3.52766 0
M  V30 1525 C 142.888 -2.21608 -3.91421 0
M  V30 1526 C 144.207 -0.185522 -4.39709 0
M  V30 1527 H 141.326 -0.173158 -0.71637 0
M  V30 1528 H 143.968 -1.08403 -1.56041 0
M  V30 1529 H 142.118 -0.202577 -3.87971 0
M  V30 1530 H 143.79 -2.80334 -3.66347 0
M  V30 1531 H 142.033 -2.691 -3.40246 0
M  V30 1532 H 142.704 -2.34203 -4.99853 0
M  V30 1533 H 145.18 -0.630726 -4.11292 0
M  V30 1534 H 144.056 -0.390306 -5.47511 0
M  V30 1535 H 144.317 0.912229 -4.32586 0
M  V30 1536 N 143.376 1.44774 -0.622745 0
M  V30 1537 C 144.309 2.27792 0.136329 0
M  V30 1538 C 145.287 1.38041 0.859264 0
M  V30 1539 O 146.471 1.67478 0.86506 0
M  V30 1540 C 143.598 3.16776 1.19878 0
M  V30 1541 C 142.644 4.22575 0.57731 0
M  V30 1542 S 143.477 5.31825 -0.626294 0
M  V30 1543 C 144.633 6.24377 0.436378 0
M  V30 1544 H 144.866 2.91824 -0.567967 0
M  V30 1545 H 142.399 1.48838 -0.410677 0
M  V30 1546 H 144.357 3.68596 1.80686 0
M  V30 1547 H 143.018 2.5198 1.87523 0
M  V30 1548 H 142.211 4.84818 1.37721 0
M  V30 1549 H 141.813 3.73974 0.0440439 0
M  V30 1550 H 144.105 6.64689 1.31128 0
M  V30 1551 H 145.048 7.07941 -0.150271 0
M  V30 1552 H 145.456 5.59381 0.758513 0
M  V30 1553 N 144.854 0.36279 1.53368 0
M  V30 1554 C 145.764 -0.492994 2.29362 0
M  V30 1555 C 146.78 -1.09507 1.35219 0
M  V30 1556 O 147.956 -1.10662 1.68273 0
M  V30 1557 C 145.021 -1.61855 3.066 0
M  V30 1558 C 144.082 -1.04429 4.16405 0
M  V30 1559 C 143.315 -2.11621 4.89951 0
M  V30 1560 O 143.538 -3.32684 4.63333 0
M  V30 1561 O 142.472 -1.74835 5.75948 0
M  V30 1562 H 146.298 0.125331 3.03441 0
M  V30 1563 H 143.883 0.127253 1.48857 0
M  V30 1564 H 145.765 -2.27302 3.54841 0
M  V30 1565 H 144.44 -2.22233 2.3536 0
M  V30 1566 H 143.347 -0.353819 3.72423 0
M  V30 1567 H 144.68 -0.485113 4.89804 0
M  V30 1568 N 146.332 -1.57332 0.0918853 0
M  V30 1569 C 147.579 -1.94236 -0.572577 0
M  V30 1570 C 147.907 -0.973398 -1.6839 0
M  V30 1571 O 147.162 0.00756912 -1.95699 0
M  V30 1572 C 147.461 -3.37689 -1.17051 0
M  V30 1573 C 147.127 -4.50527 -0.183304 0
M  V30 1574 C 145.789 -4.81119 0.0882276 0
M  V30 1575 C 148.141 -5.18883 0.49095 0
M  V30 1576 C 145.469 -5.77395 1.04076 0
M  V30 1577 C 147.821 -6.1618 1.43193 0
M  V30 1578 C 146.485 -6.45179 1.71173 0
M  V30 1579 H 145.755 -0.710762 -0.209521 0
M  V30 1580 H 148.402 -1.9077 0.167036 0
M  V30 1581 H 146.707 -3.37718 -1.9863 0
M  V30 1582 H 148.404 -3.63543 -1.69227 0
M  V30 1583 H 144.994 -4.26681 -0.405124 0
M  V30 1584 H 149.178 -4.95427 0.294312 0
M  V30 1585 H 144.434 -5.98179 1.26457 0
M  V30 1586 H 148.608 -6.68243 1.96023 0
M  V30 1587 H 146.235 -7.1959 2.4514 0
M  V30 1588 N 147.81 0.181792 -1.56548 0
M  V30 1589 C 148.743 1.25366 -1.90679 0
M  V30 1590 C 149.721 1.43299 -0.768376 0
M  V30 1591 O 150.905 1.58475 -1.02068 0
M  V30 1592 C 148.032 2.61826 -2.1486 0
M  V30 1593 C 147.078 2.60688 -3.37556 0
M  V30 1594 S 147.911 2.10804 -4.92262 0
M  V30 1595 C 149.067 3.49062 -5.19525 0
M  V30 1596 H 149.3 0.962277 -2.81296 0
M  V30 1597 H 146.833 0.385892 -1.495 0
M  V30 1598 H 148.791 3.40371 -2.29473 0
M  V30 1599 H 147.452 2.88169 -1.24969 0
M  V30 1600 H 146.645 3.61058 -3.51643 0
M  V30 1601 H 146.247 1.90232 -3.22006 0
M  V30 1602 H 148.539 4.45003 -5.10861 0
M  V30 1603 H 149.482 3.39859 -6.2121 0
M  V30 1604 H 149.89 3.4459 -4.47122 0
M  V30 1605 N 149.288 1.51039 0.449983 0
M  V30 1606 C 150.251 1.70863 1.5277 0
M  V30 1607 C 151.251 0.578846 1.5002 0
M  V30 1608 O 152.441 0.846213 1.52266 0
M  V30 1609 C 149.573 1.75341 2.9235 0
M  V30 1610 H 150.766 2.67034 1.36502 0
M  V30 1611 H 148.319 1.40838 0.677812 0
M  V30 1612 H 149.054 0.809383 3.14037 0
M  V30 1613 H 148.839 2.57436 2.95752 0
M  V30 1614 H 150.329 1.92559 3.70555 0
M  V30 1615 N 150.766 -0.704594 1.40972 0
M  V30 1616 C 151.714 -1.83994 1.42299 0
M  V30 1617 C 152.708 -1.66684 0.302111 0
M  V30 1618 O 153.914 -1.73655 0.473697 0
M  V30 1619 H 150.289 -0.606171 0.44504 0
M  V30 1620 H 152.26 -1.79992 2.38003 0
M  V30 1621 C 151.009 -3.21946 1.31323 0
M  V30 1622 H 150.332 -3.35878 2.16855 0
M  V30 1623 H 151.772 -4.01491 1.36311 0
M  V30 1624 C 150.231 -3.36891 0.0245977 0
M  V30 1625 O 150.761 -3.90687 -0.934153 0
M  V30 1626 N 148.967 -2.90559 -0.0485243 0
M  V30 1627 H 148.514 -2.46968 0.732419 0
M  V30 1628 H 148.472 -3.00937 -0.910171 0
M  V30 1629 N 152.244 -1.26651 -0.937939 0
M  V30 1630 C 153.492 -1.12165 -1.68118 0
M  V30 1631 C 153.813 0.334983 -1.92101 0
M  V30 1632 O 153.083 1.23583 -1.52 0
M  V30 1633 H 151.663 -0.412093 -0.623048 0
M  V30 1634 H 154.325 -1.59027 -1.12678 0
M  V30 1635 H 153.421 -1.64289 -2.6536 0
M  V30 1636 N 153.722 1.14298 -1.08507 0
M  V30 1637 C 154.947 1.8976 -0.837001 0
M  V30 1638 C 155.372 1.78097 0.605228 0
M  V30 1639 O 154.73 1.12188 1.4242 0
M  V30 1640 C 154.778 3.37685 -1.26495 0
M  V30 1641 O 153.882 4.10281 -0.417514 0
M  V30 1642 H 153.223 0.590365 -0.303917 0
M  V30 1643 H 155.753 1.44672 -1.44676 0
M  V30 1644 H 155.763 3.88501 -1.24625 0
M  V30 1645 H 154.438 3.45492 -2.31534 0
M  V30 1646 H 153.015 3.69536 -0.499722 0
M  V30 1647 N 155.201 0.870884 1.31352 0
M  V30 1648 C 156.131 0.343096 2.30966 0
M  V30 1649 C 157.112 -0.566507 1.60389 0
M  V30 1650 O 158.297 -0.483336 1.88089 0
M  V30 1651 C 155.427 -0.455487 3.443 0
M  V30 1652 C 154.381 0.361103 4.26474 0
M  V30 1653 C 153.707 -0.563221 5.31725 0
M  V30 1654 C 155.007 1.59566 4.97329 0
M  V30 1655 H 156.701 1.17548 2.75359 0
M  V30 1656 H 154.247 0.566686 1.32381 0
M  V30 1657 H 156.2 -0.83525 4.13039 0
M  V30 1658 H 154.924 -1.32139 2.98675 0
M  V30 1659 H 153.583 0.722825 3.59403 0
M  V30 1660 H 153.231 -1.42643 4.82351 0
M  V30 1661 H 152.931 -0.0207409 5.87596 0
M  V30 1662 H 154.455 -0.939808 6.03324 0
M  V30 1663 H 155.869 1.28728 5.58661 0
M  V30 1664 H 154.266 2.07728 5.63 0
M  V30 1665 H 155.336 2.34798 4.24262 0
M  V30 1666 N 156.679 -1.44442 0.630414 0
M  V30 1667 C 157.589 -2.34476 -0.0761693 0
M  V30 1668 C 158.605 -1.52576 -0.836449 0
M  V30 1669 O 159.781 -1.85307 -0.788874 0
M  V30 1670 C 156.846 -3.30545 -1.04599 0
M  V30 1671 C 155.907 -4.28352 -0.28516 0
M  V30 1672 C 155.14 -5.19831 -1.20878 0
M  V30 1673 O 155.363 -5.15223 -2.44747 0
M  V30 1674 O 154.297 -5.97892 -0.693491 0
M  V30 1675 H 158.123 -2.96345 0.664324 0
M  V30 1676 H 155.708 -1.44203 0.39061 0
M  V30 1677 H 157.59 -3.89681 -1.60396 0
M  V30 1678 H 156.265 -2.7121 -1.76711 0
M  V30 1679 H 155.172 -3.72764 0.315837 0
M  V30 1680 H 156.505 -4.90605 0.395924 0
M  V30 1681 N 158.157 -0.370918 -1.53173 0
M  V30 1682 C 159.104 0.473035 -2.259 0
M  V30 1683 C 160.074 1.07311 -1.26781 0
M  V30 1684 O 161.259 1.1046 -1.55574 0
M  V30 1685 C 158.399 1.60405 -3.05556 0
M  V30 1686 C 157.512 1.02863 -4.19575 0
M  V30 1687 C 156.647 2.12918 -4.86661 0
M  V30 1688 C 155.686 1.52869 -5.92704 0
M  V30 1689 N 154.823 2.56779 -6.53459 0
M  V30 1690 H 159.663 -0.153649 -2.97604 0
M  V30 1691 H 157.2 -0.0875946 -1.46839 0
M  V30 1692 H 159.158 2.27034 -3.50016 0
M  V30 1693 H 157.788 2.20131 -2.36097 0
M  V30 1694 H 156.84 0.252465 -3.79561 0
M  V30 1695 H 158.152 0.549642 -4.95762 0
M  V30 1696 H 157.306 2.87356 -5.34333 0
M  V30 1697 H 156.045 2.6417 -4.09958 0
M  V30 1698 H 155.05 0.769479 -5.44389 0
M  V30 1699 H 156.275 1.02435 -6.7133 0
M  V30 1700 H 154.221 3.07235 -5.79606 0
M  V30 1701 H 154.138 2.13583 -7.25202 0
M  V30 1702 H 155.406 3.30903 -7.05779 0
M  V30 1703 N 159.635 1.57281 -0.100228 0
M  V30 1704 C 160.881 1.94826 0.563101 0
M  V30 1705 C 161.214 0.982475 1.67514 0
M  V30 1706 O 160.489 0.0164069 1.94493 0
M  V30 1707 C 160.772 3.42453 1.11346 0
M  V30 1708 C 160.625 4.498 0.00612081 0
M  V30 1709 C 161.944 3.91506 2.01024 0
M  V30 1710 H 159.063 0.708428 0.203221 0
M  V30 1711 H 161.705 1.8922 -0.171979 0
M  V30 1712 H 159.855 3.47361 1.7399 0
M  V30 1713 H 161.527 4.57 -0.628357 0
M  V30 1714 H 159.77 4.28756 -0.659581 0
M  V30 1715 H 160.441 5.50306 0.432109 0
M  V30 1716 H 162.917 3.88784 1.48278 0
M  V30 1717 H 161.793 4.95358 2.36457 0
M  V30 1718 H 162.054 3.31099 2.92961 0
M  V30 1719 N 161.113 -0.173488 1.56642 0
M  V30 1720 C 162.043 -1.2171 1.99271 0
M  V30 1721 C 163.024 -1.46289 0.867959 0
M  V30 1722 O 164.209 -1.5766 1.13388 0
M  V30 1723 C 161.339 -2.55651 2.35074 0
M  V30 1724 C 160.293 -2.45645 3.50489 0
M  V30 1725 C 159.619 -3.84056 3.72028 0
M  V30 1726 C 160.919 -1.96302 4.84007 0
M  V30 1727 H 162.613 -0.86275 2.867 0
M  V30 1728 H 160.159 -0.413571 1.37933 0
M  V30 1729 H 162.112 -3.2886 2.63494 0
M  V30 1730 H 160.836 -2.92869 1.44552 0
M  V30 1731 H 159.495 -1.7489 3.22194 0
M  V30 1732 H 159.143 -4.18664 2.788 0
M  V30 1733 H 158.843 -3.7823 4.49684 0
M  V30 1734 H 160.367 -4.58854 4.02846 0
M  V30 1735 H 161.781 -2.59284 5.11317 0
M  V30 1736 H 160.178 -2.01429 5.65284 0
M  V30 1737 H 161.248 -0.917226 4.76146 0
M  V30 1738 N 162.591 -1.51276 -0.441967 0
M  V30 1739 C 163.816 -1.67799 -1.21895 0
M  V30 1740 C 164.241 -0.372864 -1.84367 0
M  V30 1741 O 163.599 0.666501 -1.68604 0
M  V30 1742 C 163.647 -2.79199 -2.28211 0
M  V30 1743 O 162.751 -2.42479 -3.33583 0
M  V30 1744 H 162.092 -0.559649 -0.357336 0
M  V30 1745 H 164.622 -1.97815 -0.522522 0
M  V30 1746 H 164.632 -3.03146 -2.73069 0
M  V30 1747 H 163.307 -3.73906 -1.82118 0
M  V30 1748 H 161.884 -2.29087 -2.94234 0
M  V30 1749 N 164.069 0.697108 -1.41344 0
M  V30 1750 C 165.297 1.48593 -1.43972 0
M  V30 1751 C 165.712 1.88747 -0.0445612 0
M  V30 1752 O 165.069 1.56682 0.935785 0
M  V30 1753 C 165.12 2.74946 -2.34706 0
M  V30 1754 O 164.841 2.36484 -3.68791 0
M  V30 1755 C 166.342 3.687 -2.46121 0
M  V30 1756 H 163.562 0.457964 -0.490418 0
M  V30 1757 H 166.106 0.858429 -1.8561 0
M  V30 1758 H 164.261 3.33937 -1.9638 0
M  V30 1759 H 164.675 3.17918 -4.17167 0
M  V30 1760 H 166.149 4.54145 -3.13777 0
M  V30 1761 H 166.626 4.13081 -1.49199 0
M  V30 1762 H 167.232 3.15613 -2.85076 0
M  V30 1763 N 165.547 1.27147 0.931209 0
M  V30 1764 C 166.497 1.06227 2.01742 0
M  V30 1765 C 167.481 -0.00859065 1.60898 0
M  V30 1766 O 168.673 0.209537 1.75755 0
M  V30 1767 C 165.802 0.707787 3.35924 0
M  V30 1768 C 164.888 1.81661 3.83223 0
M  V30 1769 N 165.279 3.05564 4.03069 0
M  V30 1770 C 163.577 1.70249 4.12227 0
M  V30 1771 C 164.278 3.77697 4.42403 0
M  V30 1772 N 163.254 3.0544 4.49675 0
M  V30 1773 H 167.056 2.00261 2.15111 0
M  V30 1774 H 164.57 1.1781 1.11779 0
M  V30 1775 H 166.567 0.539043 4.134 0
M  V30 1776 H 165.227 -0.224964 3.2392 0
M  V30 1777 H 166.238 3.41363 3.89476 0
M  V30 1778 H 162.915 0.840329 4.08956 0
M  V30 1779 H 164.305 4.84168 4.65866 0
M  V30 1780 N 167.025 -1.13721 1.09112 0
M  V30 1781 C 168.25 -1.89314 0.847053 0
M  V30 1782 C 168.675 -1.78416 -0.595774 0
M  V30 1783 O 168.033 -1.12942 -1.41823 0
M  V30 1784 C 168.081 -3.3701 1.28284 0
M  V30 1785 O 167.185 -4.10054 0.439267 0
M  V30 1786 H 166.526 -0.588745 0.307044 0
M  V30 1787 H 169.056 -1.43902 1.45442 0
M  V30 1788 H 169.066 -3.87834 1.26683 0
M  V30 1789 H 167.741 -3.4426 2.33363 0
M  V30 1790 H 166.318 -3.69266 0.519312 0
M  V30 1791 N 168.503 -0.877838 -1.30888 0
M  V30 1792 C 169.433 -0.35534 -2.3078 0
M  V30 1793 C 170.414 0.557994 -1.60687 0
M  V30 1794 O 171.599 0.473355 -1.88343 0
M  V30 1795 C 168.729 0.437221 -3.44537 0
M  V30 1796 C 167.683 -0.383715 -4.26276 0
M  V30 1797 C 167.009 0.535014 -5.32017 0
M  V30 1798 C 168.309 -1.62201 -4.96476 0
M  V30 1799 H 170.003 -1.19007 -2.74732 0
M  V30 1800 H 167.549 -0.573698 -1.32078 0
M  V30 1801 H 169.502 0.813334 -4.13477 0
M  V30 1802 H 168.226 1.30553 -2.99372 0
M  V30 1803 H 166.885 -0.741874 -3.59015 0
M  V30 1804 H 166.533 1.40083 -4.831 0
M  V30 1805 H 166.233 -0.0104211 -5.87599 0
M  V30 1806 H 167.757 0.907799 -6.03814 0
M  V30 1807 H 169.171 -1.31689 -5.5797 0
M  V30 1808 H 167.568 -2.10711 -5.61891 0
M  V30 1809 H 168.638 -2.37044 -4.23011 0
M  V30 1810 N 169.982 1.44106 -0.638065 0
M  V30 1811 C 171.222 2.03858 -0.148733 0
M  V30 1812 C 171.586 1.49153 1.20903 0
M  V30 1813 O 172.787 2.00452 1.79088 0
M  V30 1814 C 171.058 3.57117 -0.142314 0
M  V30 1815 S 172.617 4.37897 0.281385 0
M  V30 1816 H 169.435 0.708069 -0.0644912 0
M  V30 1817 H 172.037 1.7639 -0.843009 0
M  V30 1818 H 170.741 3.94436 -1.13349 0
M  V30 1819 H 170.272 3.89205 0.572988 0
M  V30 1820 H 172.287 4.72218 1.52395 0
M  V30 1821 N 171.46 0.379036 1.52974 0
M  V30 1822 C 172.706 -0.199244 2.02422 0
M  V30 1823 C 173.061 -1.4532 1.26095 0
M  V30 1824 O 172.354 -1.88377 0.34996 0
M  V30 1825 C 172.548 -0.53096 3.53434 0
M  V30 1826 C 172.377 0.689298 4.44386 0
M  V30 1827 C 171.147 1.20546 4.9071 0
M  V30 1828 C 173.345 1.55856 4.90116 0
M  V30 1829 N 171.327 2.38434 5.65705 0
M  V30 1830 C 172.698 2.58396 5.63588 0
M  V30 1831 C 174.753 1.57986 4.7217 0
M  V30 1832 C 173.456 3.62939 6.21022 0
M  V30 1833 C 175.482 2.6143 5.30479 0
M  V30 1834 C 174.844 3.62693 6.03849 0
M  V30 1835 H 170.943 -0.0352671 0.781204 0
M  V30 1836 H 173.527 0.526614 1.87443 0
M  V30 1837 H 171.698 -1.22588 3.68547 0
M  V30 1838 H 173.43 -1.0955 3.89591 0
M  V30 1839 H 170.185 0.768022 4.67331 0
M  V30 1840 H 170.609 2.98055 6.07859 0
M  V30 1841 H 175.251 0.810475 4.14959 0
M  V30 1842 H 172.969 4.40751 6.77321 0
M  V30 1843 H 176.555 2.63949 5.18481 0
M  V30 1844 H 175.435 4.41424 6.48163 0
M  V30 1845 N 172.938 -1.57226 0.108567 0
M  V30 1846 C 173.885 -2.14756 -0.845481 0
M  V30 1847 C 174.855 -1.06971 -1.27068 0
M  V30 1848 O 176.04 -1.34827 -1.35005 0
M  V30 1849 C 173.18 -2.74298 -2.09415 0
M  V30 1850 C 172.293 -3.96358 -1.71826 0
M  V30 1851 C 171.428 -4.44021 -2.9158 0
M  V30 1852 C 170.467 -5.58637 -2.50181 0
M  V30 1853 N 169.604 -6.01091 -3.62814 0
M  V30 1854 H 174.444 -2.95961 -0.348035 0
M  V30 1855 H 171.981 -1.46226 -0.160106 0
M  V30 1856 H 173.939 -3.06945 -2.82561 0
M  V30 1857 H 172.569 -1.95801 -2.56636 0
M  V30 1858 H 171.621 -3.69939 -0.885947 0
M  V30 1859 H 172.933 -4.79504 -1.37394 0
M  V30 1860 H 172.087 -4.78522 -3.72963 0
M  V30 1861 H 170.826 -3.59803 -3.29231 0
M  V30 1862 H 169.831 -5.23751 -1.67228 0
M  V30 1863 H 171.056 -6.44613 -2.13659 0
M  V30 1864 H 169.002 -5.19817 -4.00158 0
M  V30 1865 H 168.919 -6.79066 -3.32273 0
M  V30 1866 H 170.187 -6.40227 -4.44668 0
M  V30 1867 N 174.416 0.165178 -1.56732 0
M  V30 1868 C 175.346 1.20651 -1.99914 0
M  V30 1869 C 176.327 1.45827 -0.875705 0
M  V30 1870 O 177.512 1.57057 -1.14223 0
M  V30 1871 C 174.642 2.54401 -2.36427 0
M  V30 1872 C 173.596 2.43782 -3.51787 0
M  V30 1873 C 172.922 3.82078 -3.7406 0
M  V30 1874 C 174.222 1.93732 -4.85041 0
M  V30 1875 H 175.916 0.847534 -2.87154 0
M  V30 1876 H 173.462 0.40625 -1.38151 0
M  V30 1877 H 175.415 3.27458 -2.65234 0
M  V30 1878 H 174.139 2.92098 -1.46103 0
M  V30 1879 H 172.798 1.73178 -3.23117 0
M  V30 1880 H 172.446 4.17179 -2.81017 0
M  V30 1881 H 172.146 3.7584 -4.51684 0
M  V30 1882 H 173.67 4.56712 -4.05274 0
M  V30 1883 H 175.084 2.56569 -5.12684 0
M  V30 1884 H 173.481 1.98428 -5.66345 0
M  V30 1885 H 174.551 0.891962 -4.76626 0
M  V30 1886 N 175.894 1.51508 0.433938 0
M  V30 1887 C 177.31 1.39759 0.770682 0
M  V30 1888 C 177.51 0.482594 1.95636 0
M  V30 1889 O 176.566 -0.0609691 2.52426 0
M  V30 1890 C 177.879 2.81851 1.04787 0
M  V30 1891 C 179.427 2.91025 1.1521 0
M  V30 1892 C 179.902 4.34032 1.46219 0
M  V30 1893 N 181.393 4.37154 1.53136 0
M  V30 1894 C 182.128 5.4484 1.78709 0
M  V30 1895 N 181.624 6.62682 2.02051 0
M  V30 1896 N 183.417 5.32324 1.80519 0
M  V30 1897 H 175.568 2.09548 -0.346892 0
M  V30 1898 H 177.831 0.943446 -0.0928074 0
M  V30 1899 H 177.537 3.50815 0.249304 0
M  V30 1900 H 177.411 3.21386 1.97461 0
M  V30 1901 H 179.798 2.22257 1.94128 0
M  V30 1902 H 179.879 2.54983 0.204281 0
M  V30 1903 H 179.523 5.03351 0.678274 0
M  V30 1904 H 179.453 4.6759 2.42212 0
M  V30 1905 H 181.944 3.52197 1.36987 0
M  V30 1906 H 182.257 7.40543 2.20943 0
M  V30 1907 H 180.602 6.65791 1.99366 0
M  V30 1908 H 183.793 4.39246 1.61805 0
M  V30 1909 H 183.966 6.16328 2.00111 0
M  V30 1910 N 177.372 -0.689602 1.41712 0
M  V30 1911 C 178.619 -1.44966 1.4139 0
M  V30 1912 C 178.947 -1.94484 0.025105 0
M  V30 1913 O 178.202 -1.70307 -0.964048 0
M  V30 1914 C 178.501 -2.67298 2.37247 0
M  V30 1915 C 178.167 -2.36405 3.83958 0
M  V30 1916 C 176.829 -2.27691 4.23923 0
M  V30 1917 C 179.181 -2.11043 4.76561 0
M  V30 1918 C 176.509 -1.91719 5.54492 0
M  V30 1919 C 178.861 -1.76578 6.07456 0
M  V30 1920 C 177.525 -1.66363 6.46436 0
M  V30 1921 H 176.795 -0.53047 0.517381 0
M  V30 1922 H 179.442 -0.787655 1.74552 0
M  V30 1923 H 177.747 -3.38461 1.9736 0
M  V30 1924 H 179.444 -3.25452 2.34269 0
M  V30 1925 H 176.034 -2.44085 3.52308 0
M  V30 1926 H 180.218 -2.16717 4.46483 0
M  V30 1927 H 175.474 -1.82367 5.83568 0
M  V30 1928 H 179.648 -1.55974 6.78708 0
M  V30 1929 H 177.275 -1.38258 7.47522 0
M  V30 1930 N 178.85 -1.27639 -0.924453 0
M  V30 1931 C 180.266 -1.05113 -1.20097 0
M  V30 1932 C 180.466 0.213262 -2.00368 0
M  V30 1933 O 179.522 0.91787 -2.35226 0
M  V30 1934 C 180.835 -2.29244 -1.94596 0
M  V30 1935 C 182.383 -2.34315 -2.07522 0
M  V30 1936 C 182.858 -3.58183 -2.85427 0
M  V30 1937 N 184.349 -3.5876 -2.92994 0
M  V30 1938 C 185.084 -4.51277 -3.53746 0
M  V30 1939 N 184.58 -5.54102 -4.15863 0
M  V30 1940 N 186.373 -4.38894 -3.51181 0
M  V30 1941 H 178.524 -2.08821 -0.388264 0
M  V30 1942 H 180.787 -0.918568 -0.234385 0
M  V30 1943 H 180.493 -3.21301 -1.43034 0
M  V30 1944 H 180.367 -2.34816 -2.95197 0
M  V30 1945 H 182.754 -1.42762 -2.58269 0
M  V30 1946 H 182.835 -2.32744 -1.06131 0
M  V30 1947 H 182.479 -4.50074 -2.35363 0
M  V30 1948 H 182.409 -3.57006 -3.8711 0
M  V30 1949 H 184.9 -2.84398 -2.4885 0
M  V30 1950 H 185.213 -6.20859 -4.60168 0
M  V30 1951 H 183.558 -5.57941 -4.144 0
M  V30 1952 H 186.749 -3.57772 -3.01856 0
M  V30 1953 H 186.922 -5.11186 -3.98237 0
M  V30 1954 N 180.328 1.1314 -1.09713 0
M  V30 1955 C 181.577 1.83838 -0.829851 0
M  V30 1956 C 181.89 1.84599 0.646728 0
M  V30 1957 O 183.096 2.51218 1.02965 0
M  V30 1958 C 181.552 3.30069 -1.43466 0
M  V30 1959 C 181.16 3.37688 -2.94399 0
M  V30 1960 C 182.904 4.05788 -1.24645 0
M  V30 1961 C 180.811 4.78209 -3.47952 0
M  V30 1962 H 179.741 0.68877 -0.306777 0
M  V30 1963 H 182.392 1.27448 -1.3202 0
M  V30 1964 H 180.774 3.8628 -0.871996 0
M  V30 1965 H 181.948 2.91456 -3.56918 0
M  V30 1966 H 180.263 2.75436 -3.12289 0
M  V30 1967 H 182.86 5.09535 -1.62107 0
M  V30 1968 H 183.203 4.15878 -0.187357 0
M  V30 1969 H 183.736 3.55915 -1.77678 0
M  V30 1970 H 180.475 4.73311 -4.53495 0
M  V30 1971 H 179.995 5.24924 -2.90198 0
M  V30 1972 H 181.674 5.47133 -3.45332 0
M  V30 1973 N 181.806 0.884767 1.30421 0
M  V30 1974 C 183.055 0.499164 1.95426 0
M  V30 1975 C 183.368 -0.95645 1.70621 0
M  V30 1976 O 184.574 -1.44889 2.29607 0
M  V30 1977 C 183.03 0.84177 3.49917 0
M  V30 1978 C 182.638 2.31514 3.83543 0
M  V30 1979 C 184.382 0.525355 4.21237 0
M  V30 1980 C 182.289 2.59939 5.31212 0
M  V30 1981 H 181.219 0.182944 0.73147 0
M  V30 1982 H 183.87 1.07971 1.48373 0
M  V30 1983 H 182.252 0.190311 3.95542 0
M  V30 1984 H 183.426 3.0109 3.48829 0
M  V30 1985 H 181.741 2.59907 3.25326 0
M  V30 1986 H 184.338 0.714762 5.29901 0
M  V30 1987 H 184.681 -0.535222 4.12845 0
M  V30 1988 H 185.214 1.134 3.81294 0
M  V30 1989 H 181.953 3.64736 5.44654 0
M  V30 1990 H 181.473 1.94972 5.67227 0
M  V30 1991 H 183.152 2.45429 5.98643 0
M  V30 1992 N 183.284 -1.43765 0.645699 0
M  V30 1993 C 184.234 -2.27884 -0.0726442 0
M  V30 1994 C 185.218 -1.39483 -0.802086 0
M  V30 1995 O 186.41 -1.63174 -0.685791 0
M  V30 1996 C 183.539 -3.27055 -1.04356 0
M  V30 1997 C 182.625 -4.22944 -0.312985 0
M  V30 1998 N 183.016 -5.01391 0.666386 0
M  V30 1999 C 181.314 -4.42528 -0.55546 0
M  V30 2000 C 182.015 -5.71217 1.09935 0
M  V30 2001 N 180.991 -5.41856 0.435137 0
M  V30 2002 H 184.793 -2.85949 0.678988 0
M  V30 2003 H 182.307 -1.55378 0.472368 0
M  V30 2004 H 184.304 -3.86089 -1.57292 0
M  V30 2005 H 182.964 -2.70551 -1.79534 0
M  V30 2006 H 183.975 -5.07252 1.04481 0
M  V30 2007 H 180.652 -3.97104 -1.28899 0
M  V30 2008 H 182.042 -6.44202 1.90929 0
M  V30 2009 N 184.763 -0.387143 -1.52771 0
M  V30 2010 C 185.673 0.456442 -2.30117 0
M  V30 2011 C 186.689 1.07342 -1.36944 0
M  V30 2012 O 187.865 1.07971 -1.70013 0
M  V30 2013 C 184.93 1.56957 -3.09136 0
M  V30 2014 C 183.991 0.977916 -4.18014 0
M  V30 2015 C 183.224 2.038 -4.93256 0
M  V30 2016 O 183.447 3.25271 -4.68567 0
M  V30 2017 O 182.381 1.6565 -5.78657 0
M  V30 2018 H 186.207 -0.17359 -3.03203 0
M  V30 2019 H 183.792 -0.150919 -1.48636 0
M  V30 2020 H 185.674 2.21628 -3.58412 0
M  V30 2021 H 184.349 2.18461 -2.38865 0
M  V30 2022 H 183.256 0.294525 -3.72939 0
M  V30 2023 H 184.589 0.407128 -4.90513 0
M  V30 2024 N 186.241 1.57166 -0.116904 0
M  V30 2025 C 187.469 1.99473 0.549383 0
M  V30 2026 C 187.884 0.996541 1.60357 0
M  V30 2027 O 187.241 -0.0108731 1.82497 0
M  V30 2028 C 187.292 3.41788 1.17741 0
M  V30 2029 O 187.013 4.37788 0.165362 0
M  V30 2030 C 188.514 3.99216 1.92722 0
M  V30 2031 H 185.734 0.655009 0.145616 0
M  V30 2032 H 188.278 2.03494 -0.202625 0
M  V30 2033 H 186.433 3.38713 1.88021 0
M  V30 2034 H 186.847 5.20806 0.621403 0
M  V30 2035 H 188.321 5.00882 2.31995 0
M  V30 2036 H 188.798 3.3824 2.80161 0
M  V30 2037 H 189.404 4.0583 1.27209 0
M  V30 2038 N 187.719 -0.156864 1.56817 0
M  V30 2039 C 188.944 -0.890331 1.87318 0
M  V30 2040 C 189.369 -1.74394 0.704855 0
M  V30 2041 O 188.727 -1.77972 -0.345786 0
M  V30 2042 C 188.775 -1.73102 3.16336 0
M  V30 2043 O 187.879 -2.83422 2.99576 0
M  V30 2044 H 187.22 -0.24857 0.615718 0
M  V30 2045 H 189.75 -0.150649 2.04045 0
M  V30 2046 H 189.76 -2.12803 3.48107 0
M  V30 2047 H 188.435 -1.10412 4.00976 0
M  V30 2048 H 187.012 -2.47199 2.7919 0
M  V30 2049 N 189.197 -1.51736 -0.425897 0
M  V30 2050 C 190.127 -1.76827 -1.52494 0
M  V30 2051 C 191.108 -0.618524 -1.58456 0
M  V30 2052 O 192.293 -0.862416 -1.74 0
M  V30 2053 C 189.423 -1.90374 -2.90474 0
M  V30 2054 C 188.377 -3.0588 -2.99369 0
M  V30 2055 C 187.703 -3.04625 -4.3944 0
M  V30 2056 C 189.003 -4.45644 -2.72394 0
M  V30 2057 H 190.697 -2.68855 -1.31748 0
M  V30 2058 H 188.243 -1.29372 -0.632362 0
M  V30 2059 H 190.196 -2.0651 -3.6733 0
M  V30 2060 H 188.92 -0.95004 -3.12477 0
M  V30 2061 H 187.579 -2.89467 -2.24954 0
M  V30 2062 H 187.227 -2.0701 -4.58428 0
M  V30 2063 H 186.927 -3.82195 -4.46319 0
M  V30 2064 H 188.451 -3.22869 -5.18255 0
M  V30 2065 H 189.865 -4.62348 -3.38979 0
M  V30 2066 H 188.262 -5.25006 -2.9067 0
M  V30 2067 H 189.332 -4.54893 -1.67929 0
M  V30 2068 N 190.675 0.682077 -1.42076 0
M  V30 2069 C 191.638 1.77756 -1.44691 0
M  V30 2070 C 192.638 1.5726 -0.335535 0
M  V30 2071 O 193.828 1.63686 -0.596037 0
M  V30 2072 C 190.96 3.16301 -1.27146 0
M  V30 2073 H 192.153 1.76826 -2.42224 0
M  V30 2074 H 189.706 0.891012 -1.28416 0
M  V30 2075 H 190.441 3.22862 -0.305075 0
M  V30 2076 H 190.226 3.32581 -2.07683 0
M  V30 2077 H 191.716 3.96241 -1.31843 0
M  V30 2078 N 192.153 1.28127 0.917671 0
M  V30 2079 C 193.086 1.06039 2.02067 0
M  V30 2080 C 194.064 -0.0223285 1.62585 0
M  V30 2081 O 195.248 0.124823 1.88086 0
M  V30 2082 C 192.375 0.610596 3.33151 0
M  V30 2083 C 191.421 1.68937 3.91615 0
M  V30 2084 S 192.254 3.28437 4.22953 0
M  V30 2085 C 193.41 2.85283 5.57103 0
M  V30 2086 H 193.643 1.99425 2.20493 0
M  V30 2087 H 191.176 1.12071 1.06205 0
M  V30 2088 H 193.134 0.357778 4.08938 0
M  V30 2089 H 191.795 -0.303364 3.12632 0
M  V30 2090 H 190.988 1.32619 4.86239 0
M  V30 2091 H 190.59 1.89478 3.2245 0
M  V30 2092 H 192.882 2.3121 6.36827 0
M  V30 2093 H 193.825 3.7869 5.98331 0
M  V30 2094 H 194.233 2.24118 5.18104 0
M  V30 2095 N 193.631 -1.12557 1.10312 0
M  V30 2096 C 194.579 -2.20325 0.745629 0
M  V30 2097 C 195.573 -1.67429 -0.25763 0
M  V30 2098 O 196.779 -1.79612 -0.118132 0
M  V30 2099 H 193.154 -0.718118 0.223182 0
M  V30 2100 H 195.125 -2.47733 1.66346 0
M  V30 2101 C 193.874 -3.47168 0.192262 0
M  V30 2102 H 193.197 -3.88215 0.955475 0
M  V30 2103 H 194.637 -4.23995 -0.0198274 0
M  V30 2104 C 193.096 -3.19298 -1.07472 0
M  V30 2105 O 193.626 -3.3891 -2.15645 0
M  V30 2106 N 191.832 -2.73113 -0.992847 0
M  V30 2107 H 191.379 -2.57354 -0.112474 0
M  V30 2108 H 191.337 -2.54842 -1.84127 0
M  V30 2109 N 195.109 -0.891671 -1.2995 0
M  V30 2110 C 196.356 -0.513501 -1.95881 0
M  V30 2111 C 196.684 0.938655 -1.70351 0
M  V30 2112 O 195.939 1.67936 -1.00478 0
M  V30 2113 C 196.238 -0.742868 -3.49594 0
M  V30 2114 C 195.904 -2.17114 -3.95186 0
M  V30 2115 C 194.566 -2.56169 -4.07346 0
M  V30 2116 C 196.918 -3.10162 -4.18866 0
M  V30 2117 C 194.246 -3.87469 -4.4055 0
M  V30 2118 C 196.598 -4.41001 -4.53542 0
M  V30 2119 C 195.262 -4.79941 -4.63911 0
M  V30 2120 H 194.532 -0.187903 -0.71678 0
M  V30 2121 H 197.179 -1.1288 -1.54694 0
M  V30 2122 H 195.484 -0.044586 -3.91775 0
M  V30 2123 H 197.181 -0.429767 -3.9869 0
M  V30 2124 H 193.771 -1.85801 -3.86233 0
M  V30 2125 H 197.955 -2.81206 -4.08946 0
M  V30 2126 H 193.211 -4.17371 -4.46779 0
M  V30 2127 H 197.385 -5.13133 -4.70815 0
M  V30 2128 H 195.012 -5.81719 -4.89395 0
M  V30 2129 N 196.587 1.43421 -0.653314 0
M  V30 2130 C 197.517 2.33487 0.0246656 0
M  V30 2131 C 198.498 1.49475 0.811863 0
M  V30 2132 O 199.683 1.78139 0.773322 0
M  V30 2133 C 196.813 3.32841 0.99166 0
M  V30 2134 C 195.767 4.26842 0.314568 0
M  V30 2135 C 195.093 5.16236 1.39302 0
M  V30 2136 C 196.393 5.16243 -0.793095 0
M  V30 2137 H 198.087 2.90427 -0.727481 0
M  V30 2138 H 195.633 1.39649 -0.351287 0
M  V30 2139 H 197.586 3.94747 1.47487 0
M  V30 2140 H 196.31 2.74158 1.77497 0
M  V30 2141 H 194.969 3.663 -0.148199 0
M  V30 2142 H 194.617 4.53891 2.16776 0
M  V30 2143 H 194.317 5.79948 0.945223 0
M  V30 2144 H 195.841 5.81015 1.87759 0
M  V30 2145 H 197.255 5.71958 -0.392039 0
M  V30 2146 H 195.652 5.88676 -1.16536 0
M  V30 2147 H 196.722 4.55927 -1.65103 0
M  V30 2148 N 198.065 0.39524 1.52563 0
M  V30 2149 C 199.015 -0.4541 2.23432 0
M  V30 2150 C 199.999 -1.02482 1.24042 0
M  V30 2151 O 201.191 -0.949938 1.49349 0
M  V30 2152 C 198.32 -1.57769 3.049 0
M  V30 2153 C 197.406 -1.01842 4.1169 0
M  V30 2154 N 197.797 -0.184613 5.05463 0
M  V30 2155 C 196.095 -1.29033 4.26927 0
M  V30 2156 C 196.796 0.125013 5.81566 0
M  V30 2157 N 195.772 -0.480498 5.41472 0
M  V30 2158 H 199.574 0.189413 2.93289 0
M  V30 2159 H 197.088 0.204877 1.61102 0
M  V30 2160 H 199.085 -2.19862 3.54212 0
M  V30 2161 H 197.745 -2.22397 2.36579 0
M  V30 2162 H 198.756 0.178602 5.17592 0
M  V30 2163 H 195.433 -1.93721 3.69836 0
M  V30 2164 H 196.823 0.800962 6.67109 0
M  V30 2165 N 199.544 -1.57102 0.125237 0
M  V30 2166 C 200.769 -2.0019 -0.542101 0
M  V30 2167 C 201.194 -1.00449 -1.59034 0
M  V30 2168 O 200.552 0.0229423 -1.81285 0
M  V30 2169 C 200.6 -3.42129 -1.13929 0
M  V30 2170 O 199.704 -3.45307 -2.2547 0
M  V30 2171 H 199.045 -0.650171 -0.134812 0
M  V30 2172 H 201.575 -2.03461 0.215553 0
M  V30 2173 H 201.585 -3.80471 -1.4733 0
M  V30 2174 H 200.26 -4.14237 -0.371531 0
M  V30 2175 H 198.837 -3.1879 -1.93462 0
M  V30 2176 N 201.022 0.148545 -1.56898 0
M  V30 2177 C 202.271 0.85984 -1.82454 0
M  V30 2178 C 202.584 1.82406 -0.706229 0
M  V30 2179 O 203.79 2.57938 -0.847349 0
M  V30 2180 C 202.246 1.57967 -3.2338 0
M  V30 2181 C 201.854 0.65794 -4.43142 0
M  V30 2182 C 203.598 2.27784 -3.58211 0
M  V30 2183 C 201.505 1.3793 -5.75091 0
M  V30 2184 H 200.435 0.324834 -0.68044 0
M  V30 2185 H 203.086 0.112588 -1.83154 0
M  V30 2186 H 201.468 2.37249 -3.17063 0
M  V30 2187 H 202.642 -0.0995497 -4.60692 0
M  V30 2188 H 200.957 0.0682643 -4.16344 0
M  V30 2189 H 203.554 2.8239 -4.54048 0
M  V30 2190 H 203.897 3.04204 -2.84193 0
M  V30 2191 H 204.43 1.55421 -3.66182 0
M  V30 2192 H 201.169 0.656982 -6.52199 0
M  V30 2193 H 200.689 2.10954 -5.61479 0
M  V30 2194 H 202.368 1.92063 -6.17835 0
M  V30 2195 N 202.5 1.5196 0.417844 0
M  V30 2196 C 203.447 1.74678 1.50852 0
M  V30 2197 C 204.417 0.588947 1.55308 0
M  V30 2198 O 205.602 0.825544 1.72016 0
M  V30 2199 C 202.742 1.89544 2.88387 0
M  V30 2200 C 201.855 3.17166 2.93309 0
M  V30 2201 C 200.99 3.22513 4.22088 0
M  V30 2202 C 200.029 4.44372 4.20951 0
M  V30 2203 N 199.166 4.47161 5.41287 0
M  V30 2204 H 204.006 2.67768 1.30783 0
M  V30 2205 H 201.543 1.32689 0.63498 0
M  V30 2206 H 203.501 1.96146 3.68216 0
M  V30 2207 H 202.131 0.998424 3.06971 0
M  V30 2208 H 201.183 3.19778 2.06024 0
M  V30 2209 H 202.495 4.07021 2.88332 0
M  V30 2210 H 201.649 3.28139 5.10303 0
M  V30 2211 H 200.388 2.30581 4.29748 0
M  V30 2212 H 199.393 4.38902 3.31127 0
M  V30 2213 H 200.618 5.3759 4.14938 0
M  V30 2214 H 198.564 3.58108 5.49632 0
M  V30 2215 H 198.481 5.3085 5.3827 0
M  V30 2216 H 199.749 4.57005 6.3148 0
M  V30 2217 N 203.978 -0.674533 1.42435 0
M  V30 2218 C 205.389 -1.25514 1.38214 0
M  V30 2219 C 205.74 -1.96055 0.0755464 0
M  V30 2220 O 204.865 -2.00028 -0.8257 0
M  V30 2221 C 205.46 -2.28269 2.50357 0
M  V30 2222 C 204.019 -2.81856 2.49467 0
M  V30 2223 C 203.166 -1.56182 2.29134 0
M  V30 2224 H 206.117 -0.467902 1.51646 0
M  V30 2225 H 206.138 -3.10009 2.20624 0
M  V30 2226 H 205.65 -1.769 3.45439 0
M  V30 2227 H 203.751 -3.37346 1.58204 0
M  V30 2228 H 203.864 -3.30854 3.46515 0
M  V30 2229 H 202.228 -1.82761 1.774 0
M  V30 2230 H 203.011 -1.06778 3.26272 0
M  V30 2231 N 205.456 -1.28612 -0.910864 0
M  V30 2232 C 206.867 -1.14406 -1.47541 0
M  V30 2233 C 207.218 0.264901 -1.94403 0
M  V30 2234 O 206.343 1.15942 -1.82719 0
M  V30 2235 C 206.938 -2.07073 -2.68153 0
M  V30 2236 C 205.497 -1.96923 -3.20778 0
M  V30 2237 C 204.644 -1.98646 -1.93481 0
M  V30 2238 H 207.595 -1.41259 -0.723291 0
M  V30 2239 H 207.616 -1.63642 -3.43514 0
M  V30 2240 H 207.128 -3.09611 -2.34015 0
M  V30 2241 H 205.229 -0.97433 -3.59635 0
M  V30 2242 H 205.342 -2.84026 -3.85832 0
M  V30 2243 H 203.706 -1.43093 -2.10705 0
M  V30 2244 H 204.489 -3.02868 -1.61634 0
M  V30 2245 N 206.934 1.1197 -1.10907 0
M  V30 2246 C 207.864 2.19928 -0.784473 0
M  V30 2247 C 208.845 1.6833 0.244726 0
M  V30 2248 O 210.03 1.93892 0.109418 0
M  V30 2249 C 207.16 3.46597 -0.220827 0
M  V30 2250 C 206.114 4.11376 -1.18127 0
M  V30 2251 C 205.44 5.32554 -0.478594 0
M  V30 2252 C 206.74 4.56945 -2.52979 0
M  V30 2253 H 208.434 2.47337 -1.68715 0
M  V30 2254 H 205.98 1.18879 -0.812642 0
M  V30 2255 H 207.933 4.21396 0.0184278 0
M  V30 2256 H 206.657 3.1863 0.717113 0
M  V30 2257 H 205.316 3.38564 -1.40606 0
M  V30 2258 H 204.964 5.00856 0.463976 0
M  V30 2259 H 204.664 5.76844 -1.11912 0
M  V30 2260 H 206.188 6.10096 -0.248 0
M  V30 2261 H 207.602 5.23093 -2.3462 0
M  V30 2262 H 205.999 5.1203 -3.12962 0
M  V30 2263 H 207.069 3.70676 -3.12614 0
M  V30 2264 N 208.412 0.89855 1.29475 0
M  V30 2265 C 209.342 0.39201 2.30186 0
M  V30 2266 C 210.323 -0.532359 1.61555 0
M  V30 2267 O 211.508 -0.443331 1.89072 0
M  V30 2268 C 208.638 -0.382353 3.45189 0
M  V30 2269 C 207.592 0.451483 4.25612 0
M  V30 2270 C 206.918 -0.450307 5.328 0
M  V30 2271 C 208.218 1.70079 4.93832 0
M  V30 2272 H 209.912 1.23362 2.72804 0
M  V30 2273 H 207.458 0.594638 1.31149 0
M  V30 2274 H 209.411 -0.747451 4.14718 0
M  V30 2275 H 208.135 -1.25774 3.01411 0
M  V30 2276 H 206.794 0.798897 3.57789 0
M  V30 2277 H 206.442 -1.32379 4.85268 0
M  V30 2278 H 206.142 0.103902 5.87508 0
M  V30 2279 H 207.666 -0.811623 6.05182 0
M  V30 2280 H 209.08 1.40549 5.55805 0
M  V30 2281 H 207.477 2.19623 5.58467 0
M  V30 2282 H 208.547 2.43744 4.19186 0
M  V30 2283 N 209.89 -1.43072 0.660911 0
M  V30 2284 C 210.84 -2.27948 -0.04847 0
M  V30 2285 C 211.824 -1.40325 -0.787246 0
M  V30 2286 O 213.016 -1.63893 -0.668446 0
M  V30 2287 C 210.145 -3.28143 -1.00881 0
M  V30 2288 C 209.231 -4.23252 -0.268108 0
M  V30 2289 N 209.622 -5.00656 0.719528 0
M  V30 2290 C 207.92 -4.43092 -0.508493 0
M  V30 2291 C 208.621 -5.70019 1.15988 0
M  V30 2292 N 207.597 -5.41364 0.492584 0
M  V30 2293 H 211.399 -2.85213 0.709279 0
M  V30 2294 H 208.913 -1.54869 0.488822 0
M  V30 2295 H 210.91 -3.87736 -1.53188 0
M  V30 2296 H 209.57 -2.7244 -1.76654 0
M  V30 2297 H 210.581 -5.06115 1.09855 0
M  V30 2298 H 207.258 -3.98449 -1.24679 0
M  V30 2299 H 208.648 -6.4214 1.97751 0
M  V30 2300 N 211.368 -0.403325 -1.52352 0
M  V30 2301 C 212.298 0.416205 -2.29761 0
M  V30 2302 C 213.279 1.05123 -1.33728 0
M  V30 2303 O 214.464 1.06134 -1.62632 0
M  V30 2304 C 211.594 1.53624 -3.11475 0
M  V30 2305 C 210.548 1.02653 -4.15507 0
M  V30 2306 C 209.874 2.23971 -4.85532 0
M  V30 2307 C 211.174 0.08463 -5.22231 0
M  V30 2308 H 212.868 -0.229701 -2.98518 0
M  V30 2309 H 210.414 -0.111913 -1.43564 0
M  V30 2310 H 212.367 2.1165 -3.64393 0
M  V30 2311 H 211.091 2.20994 -2.40477 0
M  V30 2312 H 209.75 0.46871 -3.63591 0
M  V30 2313 H 209.398 2.89883 -4.11068 0
M  V30 2314 H 209.098 1.90521 -5.55856 0
M  V30 2315 H 210.622 2.82614 -5.41259 0
M  V30 2316 H 212.036 0.573509 -5.70424 0
M  V30 2317 H 210.433 -0.160783 -5.99885 0
M  V30 2318 H 211.503 -0.86237 -4.7717 0
M  V30 2319 N 212.846 1.57033 -0.133567 0
M  V30 2320 C 214.123 1.87256 0.56522 0
M  V30 2321 C 214.503 1.03726 1.83859 0
M  V30 2322 O 213.851 0.120247 2.28183 0
M  V30 2323 C 214.061 3.3865 0.843636 0
M  V30 2324 C 215.409 4.07574 1.19032 0
M  V30 2325 O 216.433 3.43752 0.933429 0
M  V30 2326 O 215.292 5.20259 1.67312 0
M  V30 2327 H 212.386 0.775678 0.286796 0
M  V30 2328 H 214.932 1.68855 -0.169168 0
M  V30 2329 H 213.704 3.91257 -0.0581149 0
M  V30 2330 H 213.327 3.62532 1.63268 0
M  V30 2331 N 214.325 -0.140222 1.56975 0
M  V30 2332 C 215.255 -1.17456 2.01808 0
M  V30 2333 C 216.236 -1.44415 0.898794 0
M  V30 2334 O 217.421 -1.5522 1.16707 0
M  V30 2335 C 214.551 -2.50607 2.40444 0
M  V30 2336 C 213.505 -2.38155 3.55621 0
M  V30 2337 C 212.831 -3.76078 3.80091 0
M  V30 2338 C 214.131 -1.85991 4.88062 0
M  V30 2339 H 215.825 -0.801743 2.88466 0
M  V30 2340 H 213.371 -0.38422 1.38779 0
M  V30 2341 H 215.324 -3.23197 2.7041 0
M  V30 2342 H 214.048 -2.89737 1.50732 0
M  V30 2343 H 212.707 -1.68016 3.25832 0
M  V30 2344 H 212.355 -4.12656 2.87618 0
M  V30 2345 H 212.055 -3.68606 4.57606 0
M  V30 2346 H 213.579 -4.50206 4.12488 0
M  V30 2347 H 214.993 -2.4838 5.16701 0
M  V30 2348 H 213.39 -1.89393 5.6943 0
M  V30 2349 H 214.46 -0.816023 4.77984 0
M  V30 2350 N 215.803 -1.52179 -0.40978 0
M  V30 2351 C 216.75 -1.75475 -1.49924 0
M  V30 2352 C 217.72 -0.597175 -1.54994 0
M  V30 2353 O 218.905 -0.834655 -1.71575 0
M  V30 2354 C 216.045 -1.9107 -2.87378 0
M  V30 2355 C 215.158 -3.18717 -2.91622 0
M  V30 2356 C 214.293 -3.24747 -4.20372 0
M  V30 2357 C 213.332 -4.46598 -4.18588 0
M  V30 2358 N 212.469 -4.50025 -5.38908 0
M  V30 2359 H 217.309 -2.68458 -1.29361 0
M  V30 2360 H 214.846 -1.33024 -0.627934 0
M  V30 2361 H 216.804 -1.98096 -3.6717 0
M  V30 2362 H 215.434 -1.01469 -3.06437 0
M  V30 2363 H 214.486 -3.20866 -2.04326 0
M  V30 2364 H 215.798 -4.08544 -2.86169 0
M  V30 2365 H 214.952 -3.30841 -5.08556 0
M  V30 2366 H 213.691 -2.32857 -4.28519 0
M  V30 2367 H 212.696 -4.40652 -3.28794 0
M  V30 2368 H 213.921 -5.39783 -4.12081 0
M  V30 2369 H 211.867 -3.61017 -5.47725 0
M  V30 2370 H 211.784 -5.33697 -5.35447 0
M  V30 2371 H 213.052 -4.60347 -6.29048 0
M  V30 2372 N 217.281 0.66697 -1.42791 0
M  V30 2373 C 218.692 1.2478 -1.38877 0
M  V30 2374 C 219.043 1.96012 -0.0859426 0
M  V30 2375 O 218.168 2.00463 0.815081 0
M  V30 2376 C 218.763 2.26938 -2.51564 0
M  V30 2377 C 217.322 2.80529 -2.50959 0
M  V30 2378 C 216.469 1.54965 -2.29959 0
M  V30 2379 H 219.42 0.459853 -1.51892 0
M  V30 2380 H 219.441 3.08834 -2.22265 0
M  V30 2381 H 218.953 1.75065 -3.46372 0
M  V30 2382 H 217.054 3.36502 -1.59991 0
M  V30 2383 H 217.167 3.29012 -3.48265 0
M  V30 2384 H 215.531 1.81817 -1.78366 0
M  V30 2385 H 216.314 1.05047 -3.26833 0
M  V30 2386 N 218.759 1.29093 0.90403 0
M  V30 2387 C 220.007 1.16583 1.65085 0
M  V30 2388 C 220.328 -0.283933 1.92922 0
M  V30 2389 O 219.598 -1.19509 1.55224 0
M  V30 2390 H 218.178 0.428467 0.611903 0
M  V30 2391 H 220.84 1.61959 1.08422 0
M  V30 2392 H 219.936 1.71266 2.6091 0
M  V30 2393 N 220.237 -1.11381 1.11499 0
M  V30 2394 C 221.185 -2.19522 0.768956 0
M  V30 2395 C 222.179 -1.67693 -0.239857 0
M  V30 2396 O 223.385 -1.79727 -0.0990755 0
M  V30 2397 H 219.76 -0.715711 0.230786 0
M  V30 2398 H 221.731 -2.45954 1.68964 0
M  V30 2399 C 220.48 -3.46945 0.229073 0
M  V30 2400 H 219.803 -3.8718 0.996596 0
M  V30 2401 H 221.243 -4.23993 0.0251441 0
M  V30 2402 C 219.702 -3.2042 -1.04079 0
M  V30 2403 O 220.232 -3.41178 -2.12038 0
M  V30 2404 N 218.438 -2.74151 -0.963823 0
M  V30 2405 H 217.985 -2.57459 -0.0851722 0
M  V30 2406 H 217.943 -2.56781 -1.81414 0
M  V30 2407 N 221.715 -0.905404 -1.28997 0
M  V30 2408 C 222.964 -0.530191 -1.94607 0
M  V30 2409 C 223.277 0.929185 -1.72121 0
M  V30 2410 O 224.483 1.41218 -2.31883 0
M  V30 2411 C 222.939 -0.897333 -3.48534 0
M  V30 2412 C 222.547 -2.37587 -3.79811 0
M  V30 2413 C 224.291 -0.592304 -4.20347 0
M  V30 2414 C 222.198 -2.68357 -5.27009 0
M  V30 2415 H 221.128 -0.194558 -0.728466 0
M  V30 2416 H 223.779 -1.10318 -1.46636 0
M  V30 2417 H 222.161 -0.253214 -3.9519 0
M  V30 2418 H 223.335 -3.06602 -3.43994 0
M  V30 2419 H 221.65 -2.6505 -3.2115 0
M  V30 2420 H 224.247 -0.798975 -5.28697 0
M  V30 2421 H 224.59 0.469474 -4.13644 0
M  V30 2422 H 225.123 -1.19452 -3.79442 0
M  V30 2423 H 221.862 -3.73355 -5.38782 0
M  V30 2424 H 221.382 -2.03971 -5.64053 0
M  V30 2425 H 223.061 -2.54922 -5.94663 0
M  V30 2426 N 223.193 1.4272 -0.668489 0
M  V30 2427 C 224.123 2.335 -0.000100175 0
M  V30 2428 C 225.104 1.50328 0.795964 0
M  V30 2429 O 226.289 1.78949 0.754385 0
M  V30 2430 C 223.419 3.33874 0.956302 0
M  V30 2431 C 222.373 4.27152 0.269278 0
M  V30 2432 C 221.699 5.17684 1.33818 0
M  V30 2433 C 222.999 5.15373 -0.847805 0
M  V30 2434 H 224.693 2.89639 -0.758244 0
M  V30 2435 H 222.239 1.39269 -0.366079 0
M  V30 2436 H 224.192 3.9629 1.43292 0
M  V30 2437 H 222.916 2.76025 1.74579 0
M  V30 2438 H 221.575 3.66123 -0.187042 0
M  V30 2439 H 221.223 4.56165 2.1195 0
M  V30 2440 H 220.923 5.80918 0.883659 0
M  V30 2441 H 222.447 5.82974 1.81586 0
M  V30 2442 H 223.861 5.7151 -0.452681 0
M  V30 2443 H 222.258 5.87407 -1.22773 0
M  V30 2444 H 223.328 4.5415 -1.69929 0
M  V30 2445 N 224.671 0.411399 1.52136 0
M  V30 2446 C 225.601 -0.404015 2.29978 0
M  V30 2447 C 226.582 -1.04412 1.34284 0
M  V30 2448 O 227.767 -1.0527 1.63192 0
M  V30 2449 C 224.897 -1.5197 3.12286 0
M  V30 2450 C 223.851 -1.00448 4.16046 0
M  V30 2451 C 223.177 -2.21393 4.86712 0
M  V30 2452 C 224.477 -0.0569336 5.22269 0
M  V30 2453 H 226.171 0.245529 2.98392 0
M  V30 2454 H 223.717 0.119525 1.43503 0
M  V30 2455 H 225.67 -2.09715 3.6551 0
M  V30 2456 H 224.394 -2.19716 2.41646 0
M  V30 2457 H 223.053 -0.449421 3.63835 0
M  V30 2458 H 222.701 -2.87699 4.12599 0
M  V30 2459 H 222.401 -1.87571 5.56858 0
M  V30 2460 H 223.925 -2.7974 5.4275 0
M  V30 2461 H 225.339 -0.54325 5.7072 0
M  V30 2462 H 223.736 0.192594 5.99791 0
M  V30 2463 H 224.806 0.887663 4.76706 0
M  V30 2464 N 226.149 -1.5696 0.141893 0
M  V30 2465 C 227.426 -1.87553 -0.555281 0
M  V30 2466 C 227.806 -1.04699 -1.83306 0
M  V30 2467 O 227.154 -0.132346 -2.28116 0
M  V30 2468 C 227.364 -3.39093 -0.825664 0
M  V30 2469 C 228.712 -4.08199 -1.16869 0
M  V30 2470 O 229.736 -3.44242 -0.915185 0
M  V30 2471 O 228.595 -5.21139 -1.6455 0
M  V30 2472 H 225.689 -0.777188 -0.282679 0
M  V30 2473 H 228.235 -1.68763 0.17812 0
M  V30 2474 H 227.007 -3.91221 0.0788633 0
M  V30 2475 H 226.63 -3.63393 -1.61343 0
M  V30 2476 N 227.627 0.131896 -1.57047 0
M  V30 2477 C 228.852 0.860418 -1.8871 0
M  V30 2478 C 229.277 1.73251 -0.73251 0
M  V30 2479 O 228.635 1.785 0.317429 0
M  V30 2480 C 228.683 1.68047 -3.19049 0
M  V30 2481 O 227.787 2.7862 -3.04047 0
M  V30 2482 H 227.128 0.238743 -0.619595 0
M  V30 2483 H 229.658 0.118169 -2.04258 0
M  V30 2484 H 229.668 2.07238 -3.51449 0
M  V30 2485 H 228.343 1.04018 -4.02682 0
M  V30 2486 H 226.92 2.42726 -2.83088 0
M  V30 2487 N 229.106 1.52395 0.401703 0
M  V30 2488 C 230.054 1.7689 1.51039 0
M  V30 2489 C 231.048 0.636298 1.56996 0
M  V30 2490 O 232.254 0.818507 1.60314 0
M  V30 2491 H 228.629 0.559502 0.502456 0
M  V30 2492 H 230.6 2.69757 1.27568 0
M  V30 2493 C 229.349 1.94331 2.88324 0
M  V30 2494 H 228.672 2.80905 2.84486 0
M  V30 2495 H 230.112 2.15466 3.65172 0
M  V30 2496 C 228.571 0.712396 3.29282 0
M  V30 2497 O 229.101 -0.116218 4.01532 0
M  V30 2498 N 227.307 0.546154 2.85422 0
M  V30 2499 H 226.854 1.22156 2.26794 0
M  V30 2500 H 226.812 -0.276113 3.13185 0
M  V30 2501 N 230.584 -0.659388 1.43143 0
M  V30 2502 C 231.517 -1.78425 1.42267 0
M  V30 2503 C 232.495 -1.60085 0.284894 0
M  V30 2504 O 233.679 -1.82351 0.477527 0
M  V30 2505 C 230.806 -3.15642 1.22833 0
M  V30 2506 C 229.852 -3.52698 2.39806 0
M  V30 2507 S 230.685 -3.53372 4.02353 0
M  V30 2508 C 231.841 -4.93256 3.85291 0
M  V30 2509 H 232.074 -1.78897 2.37452 0
M  V30 2510 H 229.607 -0.831469 1.301 0
M  V30 2511 H 231.565 -3.94838 1.12308 0
M  V30 2512 H 230.226 -3.12739 0.29207 0
M  V30 2513 H 229.419 -4.52475 2.21996 0
M  V30 2514 H 229.021 -2.80899 2.46925 0
M  V30 2515 H 231.313 -5.81751 3.47235 0
M  V30 2516 H 232.256 -5.16115 4.84799 0
M  V30 2517 H 232.664 -4.665 3.17865 0
M  V30 2518 N 232.062 -1.29571 -0.897171 0
M  V30 2519 C 233.012 -1.11539 -1.98855 0
M  V30 2520 C 233.996 -0.0340716 -1.60864 0
M  V30 2521 O 235.188 -0.256062 -1.75138 0
M  V30 2522 C 232.317 -0.796603 -3.3393 0
M  V30 2523 C 231.403 -1.91758 -3.78272 0
M  V30 2524 N 231.794 -3.16143 -3.94826 0
M  V30 2525 C 230.092 -1.81119 -4.07568 0
M  V30 2526 C 230.793 -3.89293 -4.32233 0
M  V30 2527 N 229.769 -3.17255 -4.41419 0
M  V30 2528 H 233.571 -2.05894 -2.09726 0
M  V30 2529 H 231.085 -1.20732 -1.08616 0
M  V30 2530 H 233.082 -0.648459 -4.11826 0
M  V30 2531 H 231.742 0.139003 -3.24402 0
M  V30 2532 H 232.753 -3.5157 -3.80288 0
M  V30 2533 H 229.43 -0.948461 -4.06584 0
M  V30 2534 H 230.82 -4.9635 -4.52865 0
M  V30 2535 N 233.54 1.10788 -1.12088 0
M  V30 2536 C 234.786 1.82942 -0.875226 0
M  V30 2537 C 235.119 1.84779 0.597538 0
M  V30 2538 O 234.394 1.30578 1.44152 0
M  V30 2539 C 234.677 3.29789 -1.44606 0
M  V30 2540 C 234.53 3.36307 -2.98693 0
M  V30 2541 C 235.849 4.26064 -1.10261 0
M  V30 2542 H 232.968 0.664195 -0.319397 0
M  V30 2543 H 235.61 1.29867 -1.38689 0
M  V30 2544 H 233.76 3.75118 -1.01089 0
M  V30 2545 H 235.432 2.99487 -3.50864 0
M  V30 2546 H 233.675 2.76318 -3.34411 0
M  V30 2547 H 234.346 4.39694 -3.33726 0
M  V30 2548 H 236.822 3.88951 -1.4784 0
M  V30 2549 H 235.698 5.27183 -1.52869 0
M  V30 2550 H 235.959 4.42098 -0.0142953 0
M  V30 2551 N 235.018 0.912232 1.28515 0
M  V30 2552 C 235.965 0.397954 2.27343 0
M  V30 2553 C 236.935 -0.526766 1.57526 0
M  V30 2554 O 238.12 -0.449292 1.85435 0
M  V30 2555 C 235.26 -0.357263 3.43246 0
M  V30 2556 C 234.373 0.599788 4.27816 0
M  V30 2557 C 233.508 -0.173725 5.30916 0
M  V30 2558 C 232.547 0.777039 6.07148 0
M  V30 2559 N 231.684 0.0371398 7.0209 0
M  V30 2560 H 236.524 1.24577 2.70711 0
M  V30 2561 H 234.061 0.625612 1.33133 0
M  V30 2562 H 236.019 -0.8113 4.09236 0
M  V30 2563 H 234.649 -1.16943 3.00872 0
M  V30 2564 H 233.701 1.17235 3.61884 0
M  V30 2565 H 235.013 1.32704 4.80823 0
M  V30 2566 H 234.167 -0.688394 6.02782 0
M  V30 2567 H 232.906 -0.934041 4.78672 0
M  V30 2568 H 231.911 1.3031 5.34134 0
M  V30 2569 H 233.136 1.53689 6.61481 0
M  V30 2570 H 231.082 -0.705213 6.52198 0
M  V30 2571 H 230.999 0.704249 7.52713 0
M  V30 2572 H 232.267 -0.457383 7.78157 0
M  V30 2573 N 236.496 -1.42363 0.676048 0
M  V30 2574 C 237.745 -2.00745 0.196037 0
M  V30 2575 C 238.058 -1.54083 -1.20489 0
M  V30 2576 O 239.264 -2.04891 -1.78134 0
M  V30 2577 C 237.72 -3.58651 0.299616 0
M  V30 2578 C 237.328 -4.143 1.70468 0
M  V30 2579 C 239.072 -4.24326 -0.121619 0
M  V30 2580 C 236.979 -5.64574 1.76096 0
M  V30 2581 H 235.909 -0.750787 0.0695301 0
M  V30 2582 H 238.56 -1.63072 0.841412 0
M  V30 2583 H 236.942 -3.93833 -0.413673 0
M  V30 2584 H 238.116 -3.90575 2.44515 0
M  V30 2585 H 236.431 -3.61081 2.07387 0
M  V30 2586 H 239.028 -5.34607 -0.0997362 0
M  V30 2587 H 239.371 -3.99897 -1.15708 0
M  V30 2588 H 239.904 -3.94108 0.540706 0
M  V30 2589 H 236.643 -5.93804 2.77628 0
M  V30 2590 H 236.163 -5.90286 1.06406 0
M  V30 2591 H 237.842 -6.29013 1.51496 0
M  V30 2592 N 237.974 -0.419461 -1.51915 0
M  V30 2593 C 239.199 0.154572 -2.06823 0
M  V30 2594 C 239.624 1.3722 -1.28656 0
M  V30 2595 O 238.982 1.78461 -0.319583 0
M  V30 2596 C 239.03 0.473172 -3.57482 0
M  V30 2597 O 238.134 1.56255 -3.81652 0
M  V30 2598 H 237.475 0.0096924 -0.663929 0
M  V30 2599 H 240.005 -0.595642 -1.95738 0
M  V30 2600 H 240.015 0.728825 -4.01438 0
M  V30 2601 H 238.69 -0.416873 -4.13805 0
M  V30 2602 H 237.267 1.29825 -3.49571 0
M  V30 2603 N 239.452 1.56882 -0.150215 0
M  V30 2604 C 240.729 1.87844 0.545327 0
M  V30 2605 C 241.109 1.0567 1.82749 0
M  V30 2606 O 240.457 0.144442 2.28043 0
M  V30 2607 C 240.667 3.39526 0.80767 0
M  V30 2608 C 242.015 4.08814 1.14703 0
M  V30 2609 O 243.039 3.44723 0.896917 0
M  V30 2610 O 241.898 5.22004 1.61784 0
M  V30 2611 H 238.992 0.778677 0.278553 0
M  V30 2612 H 241.538 1.68666 -0.187068 0
M  V30 2613 H 240.31 3.91173 -0.0996096 0
M  V30 2614 H 239.933 3.64243 1.59413 0
M  V30 2615 N 240.93 -0.123565 1.57115 0
M  V30 2616 C 242.177 -0.832153 1.84612 0
M  V30 2617 C 242.505 -1.80093 0.734627 0
M  V30 2618 O 241.76 -1.93766 -0.27442 0
M  V30 2619 C 242.059 -1.62016 3.18568 0
M  V30 2620 C 241.725 -0.796084 4.43817 0
M  V30 2621 C 240.387 -0.568816 4.77826 0
M  V30 2622 C 242.739 -0.221364 5.2073 0
M  V30 2623 C 240.067 0.243499 5.86194 0
M  V30 2624 C 242.419 0.578117 6.29953 0
M  V30 2625 C 241.083 0.815744 6.62497 0
M  V30 2626 H 240.353 -0.304507 0.675542 0
M  V30 2627 H 243 -0.0947248 1.91266 0
M  V30 2628 H 241.305 -2.42837 3.0747 0
M  V30 2629 H 243.002 -2.17231 3.37064 0
M  V30 2630 H 239.592 -0.983307 4.17168 0
M  V30 2631 H 243.776 -0.384173 4.94811 0
M  V30 2632 H 239.032 0.436871 6.09837 0
M  V30 2633 H 243.206 1.03046 6.88734 0
M  V30 2634 H 240.833 1.44701 7.46301 0
M  V30 2635 N 242.408 -1.52605 -0.393616 0
M  V30 2636 C 243.656 -1.67093 -1.13685 0
M  V30 2637 C 243.977 -0.411011 -1.90619 0
M  V30 2638 O 243.247 0.574491 -1.87287 0
M  V30 2639 H 241.827 -0.615923 -0.422668 0
M  V30 2640 H 244.489 -1.89704 -0.447039 0
M  V30 2641 H 243.585 -2.51922 -1.84232 0
M  V30 2642 N 243.887 0.651787 -1.4349 0
M  V30 2643 C 244.817 1.77621 -1.51569 0
M  V30 2644 C 245.798 1.66022 -0.370253 0
M  V30 2645 O 246.983 1.85095 -0.587658 0
M  V30 2646 C 244.113 3.16056 -1.43966 0
M  V30 2647 C 243.067 3.4242 -2.56774 0
M  V30 2648 C 242.393 4.8067 -2.34223 0
M  V30 2649 C 243.693 3.37023 -3.99015 0
M  V30 2650 H 245.387 1.71117 -2.45681 0
M  V30 2651 H 242.933 0.821825 -1.18246 0
M  V30 2652 H 244.886 3.94472 -1.48221 0
M  V30 2653 H 243.61 3.23293 -0.463586 0
M  V30 2654 H 242.269 2.66375 -2.51873 0
M  V30 2655 H 241.917 4.84585 -1.34856 0
M  V30 2656 H 241.617 4.9927 -3.09844 0
M  V30 2657 H 243.141 5.61342 -2.40265 0
M  V30 2658 H 244.555 4.05374 -4.05395 0
M  V30 2659 H 242.952 3.67159 -4.74673 0
M  V30 2660 H 244.022 2.3518 -4.2405 0
M  V30 2661 N 245.365 1.30045 0.890287 0
M  V30 2662 C 246.59 1.21598 1.68014 0
M  V30 2663 C 247.015 -0.218678 1.86825 0
M  V30 2664 O 246.373 -1.15756 1.39536 0
M  V30 2665 C 246.421 1.94434 3.03691 0
M  V30 2666 O 245.525 1.2678 3.92429 0
M  V30 2667 H 244.866 0.420856 0.513592 0
M  V30 2668 H 247.396 1.71775 1.11151 0
M  V30 2669 H 247.406 2.03251 3.5377 0
M  V30 2670 H 246.081 2.98777 2.89318 0
M  V30 2671 H 244.658 1.26282 3.50866 0
M  V30 2672 N 246.843 -1.10192 1.12674 0
M  V30 2673 C 247.79 -2.16606 0.796906 0
M  V30 2674 C 248.76 -1.64394 -0.237476 0
M  V30 2675 O 249.945 -1.90474 -0.111484 0
M  V30 2676 C 247.085 -3.44116 0.26043 0
M  V30 2677 C 246.198 -4.10268 1.35293 0
M  V30 2678 C 245.333 -5.25507 0.775621 0
M  V30 2679 C 244.372 -5.83567 1.84706 0
M  V30 2680 N 243.509 -6.90179 1.28829 0
M  V30 2681 H 248.349 -2.44163 1.70846 0
M  V30 2682 H 245.886 -1.19846 0.85295 0
M  V30 2683 H 247.844 -4.17143 -0.0686814 0
M  V30 2684 H 246.474 -3.16901 -0.614274 0
M  V30 2685 H 245.526 -3.35184 1.79877 0
M  V30 2686 H 246.838 -4.4946 2.16303 0
M  V30 2687 H 245.992 -6.05398 0.397327 0
M  V30 2688 H 244.731 -4.87656 -0.0656581 0
M  V30 2689 H 243.736 -5.02344 2.23452 0
M  V30 2690 H 244.961 -6.23482 2.69161 0
M  V30 2691 H 242.907 -6.54322 0.468881 0
M  V30 2692 H 242.824 -7.28097 2.03497 0
M  V30 2693 H 244.092 -7.73844 0.937311 0
M  V30 2694 N 248.321 -0.919034 -1.28029 0
M  V30 2695 C 249.567 -0.565221 -1.95389 0
M  V30 2696 C 249.922 0.882325 -1.70976 0
M  V30 2697 O 249.215 1.61988 -1.02325 0
M  V30 2698 C 249.409 -0.816855 -3.4794 0
M  V30 2699 C 249.238 -2.28731 -3.87185 0
M  V30 2700 C 248.008 -2.93841 -4.11079 0
M  V30 2701 C 250.206 -3.26415 -3.97439 0
M  V30 2702 N 248.188 -4.31129 -4.37037 0
M  V30 2703 C 249.559 -4.48884 -4.27672 0
M  V30 2704 C 251.614 -3.21742 -3.79982 0
M  V30 2705 C 250.317 -5.67268 -4.42266 0
M  V30 2706 C 252.343 -4.39431 -3.95796 0
M  V30 2707 C 251.705 -5.60675 -4.26407 0
M  V30 2708 H 247.804 -0.256797 -0.738633 0
M  V30 2709 H 250.388 -1.18386 -1.54573 0
M  V30 2710 H 248.559 -0.227445 -3.87733 0
M  V30 2711 H 250.291 -0.426542 -4.02446 0
M  V30 2712 H 247.046 -2.44547 -4.05578 0
M  V30 2713 H 247.47 -5.02127 -4.5409 0
M  V30 2714 H 252.112 -2.29079 -3.55363 0
M  V30 2715 H 249.83 -6.60406 -4.65714 0
M  V30 2716 H 253.416 -4.37323 -3.83719 0
M  V30 2717 H 252.296 -6.50223 -4.38383 0
M  V30 2718 N 249.799 1.42003 -0.683588 0
M  V30 2719 C 250.732 2.28166 0.039592 0
M  V30 2720 C 251.71 1.41562 0.799942 0
M  V30 2721 O 252.894 1.70997 0.793248 0
M  V30 2722 C 250.021 3.21575 1.06335 0
M  V30 2723 C 249.067 4.24643 0.397562 0
M  V30 2724 S 249.9 5.2869 -0.851296 0
M  V30 2725 C 251.056 6.25666 0.171166 0
M  V30 2726 H 251.289 2.89153 -0.691229 0
M  V30 2727 H 248.822 1.46962 -0.473435 0
M  V30 2728 H 250.78 3.75928 1.6489 0
M  V30 2729 H 249.441 2.59707 1.76667 0
M  V30 2730 H 248.634 4.90223 1.17035 0
M  V30 2731 H 248.236 3.73824 -0.114611 0
M  V30 2732 H 250.528 6.69653 1.02819 0
M  V30 2733 H 251.471 7.06666 -0.450397 0
M  V30 2734 H 251.879 5.62095 0.520578 0
M  V30 2735 N 251.277 0.427512 1.51691 0
M  V30 2736 C 252.187 -0.39527 2.31246 0
M  V30 2737 C 253.203 -1.03674 1.39742 0
M  V30 2738 O 254.379 -1.03425 1.72816 0
M  V30 2739 C 251.444 -1.48706 3.13189 0
M  V30 2740 C 250.505 -0.866743 4.20459 0
M  V30 2741 C 249.738 -1.90651 4.98486 0
M  V30 2742 O 249.961 -3.12733 4.77026 0
M  V30 2743 O 248.895 -1.5025 5.82845 0
M  V30 2744 H 252.721 0.253918 3.02637 0
M  V30 2745 H 250.306 0.190274 1.48183 0
M  V30 2746 H 252.188 -2.12047 3.64162 0
M  V30 2747 H 250.863 -2.12051 2.44573 0
M  V30 2748 H 249.77 -0.195544 3.73589 0
M  V30 2749 H 251.103 -0.276934 4.9142 0
M  V30 2750 N 252.755 -1.56801 0.158532 0
M  V30 2751 C 253.687 -2.14488 -0.807923 0
M  V30 2752 C 254.7 -1.09721 -1.20271 0
M  V30 2753 O 255.889 -1.36956 -1.14478 0
M  V30 2754 C 252.989 -2.66217 -2.09718 0
M  V30 2755 C 252.162 -3.95507 -1.86796 0
M  V30 2756 C 251.221 -4.3243 -2.99818 0
M  V30 2757 O 250.247 -5.00543 -2.71008 0
M  V30 2758 N 251.449 -3.92947 -4.27285 0
M  V30 2759 H 254.214 -2.98042 -0.314816 0
M  V30 2760 H 251.775 -1.61881 -0.0246692 0
M  V30 2761 H 253.767 -2.87924 -2.84398 0
M  V30 2762 H 252.337 -1.87324 -2.50257 0
M  V30 2763 H 251.557 -3.82309 -0.96089 0
M  V30 2764 H 252.845 -4.79972 -1.68833 0
M  V30 2765 H 252.243 -3.38087 -4.53557 0
M  V30 2766 H 250.8 -4.19681 -4.9871 0
M  V30 2767 N 254.233 0.115231 -1.57178 0
M  V30 2768 C 255.458 0.840354 -1.89612 0
M  V30 2769 C 255.883 1.72464 -0.750845 0
M  V30 2770 O 255.241 1.78826 0.298478 0
M  V30 2771 C 255.289 1.64654 -3.20814 0
M  V30 2772 O 254.393 2.7538 -3.06985 0
M  V30 2773 H 253.734 0.232158 -0.622092 0
M  V30 2774 H 256.264 0.0964977 -2.04372 0
M  V30 2775 H 256.274 2.03499 -3.53627 0
M  V30 2776 H 254.949 0.997416 -4.03763 0
M  V30 2777 H 253.526 2.3971 -2.85646 0
M  V30 2778 N 255.711 1.52812 0.385517 0
M  V30 2779 C 256.939 1.71907 1.15133 0
M  V30 2780 C 257.354 0.439004 1.83625 0
M  V30 2781 O 256.711 -0.586765 1.7281 0
M  V30 2782 C 256.762 2.87099 2.19673 0
M  V30 2783 O 256.483 4.10151 1.53973 0
M  V30 2784 C 257.984 3.17902 3.08955 0
M  V30 2785 H 255.204 0.575479 0.345057 0
M  V30 2786 H 257.748 1.99476 0.45052 0
M  V30 2787 H 255.903 2.61982 2.85384 0
M  V30 2788 H 256.317 4.74514 2.23465 0
M  V30 2789 H 257.791 4.01959 3.7833 0
M  V30 2790 H 258.268 2.3243 3.72657 0
M  V30 2791 H 258.874 3.44871 2.48885 0
M  V30 2792 N 257.189 -0.644168 1.43834 0
M  V30 2793 C 258.605 -0.960875 1.27434 0
M  V30 2794 C 258.805 -2.00499 0.200618 0
M  V30 2795 O 257.861 -2.49018 -0.417906 0
M  V30 2796 C 259.174 -1.43653 2.64167 0
M  V30 2797 C 260.722 -1.55271 2.71772 0
M  V30 2798 C 261.197 -2.06224 4.08944 0
M  V30 2799 N 262.688 -2.13513 4.11055 0
M  V30 2800 C 263.423 -2.54081 5.14033 0
M  V30 2801 N 262.919 -2.9388 6.27381 0
M  V30 2802 N 264.712 -2.54101 5.01387 0
M  V30 2803 H 256.863 0.0465779 2.12349 0
M  V30 2804 H 259.126 -0.0417638 0.94708 0
M  V30 2805 H 258.832 -0.743706 3.43747 0
M  V30 2806 H 258.706 -2.40993 2.90176 0
M  V30 2807 H 261.093 -2.23653 1.92519 0
M  V30 2808 H 261.174 -0.563395 2.49519 0
M  V30 2809 H 260.818 -1.38441 4.88668 0
M  V30 2810 H 260.748 -3.06003 4.28567 0
M  V30 2811 H 263.239 -1.85493 3.29242 0
M  V30 2812 H 263.552 -3.2361 7.01781 0
M  V30 2813 H 261.897 -2.91663 6.30839 0
M  V30 2814 H 265.088 -2.22391 4.11898 0
M  V30 2815 H 265.261 -2.85394 5.81768 0
M  V30 2816 N 258.668 -1.30515 -0.883378 0
M  V30 2817 C 259.601 -1.11359 -1.99184 0
M  V30 2818 C 260.579 -0.0207858 -1.62587 0
M  V30 2819 O 261.763 -0.174646 -1.87689 0
M  V30 2820 C 258.89 -0.69871 -3.31415 0
M  V30 2821 C 257.936 -1.79261 -3.86998 0
M  V30 2822 S 258.769 -3.39536 -4.14096 0
M  V30 2823 C 259.925 -2.99954 -5.49344 0
M  V30 2824 H 260.158 -2.052 -2.15128 0
M  V30 2825 H 257.691 -1.14847 -1.03196 0
M  V30 2826 H 259.649 -0.466075 -4.07846 0
M  V30 2827 H 258.31 0.220368 -3.13326 0
M  V30 2828 H 257.503 -1.45464 -4.82552 0
M  V30 2829 H 257.105 -1.97961 -3.17313 0
M  V30 2830 H 259.397 -2.48013 -6.30473 0
M  V30 2831 H 260.34 -3.9442 -5.8808 0
M  V30 2832 H 260.748 -2.37775 -5.1198 0
M  V30 2833 N 260.146 1.09593 -1.13257 0
M  V30 2834 C 261.078 2.16015 -0.766167 0
M  V30 2835 C 262.091 1.61423 0.211303 0
M  V30 2836 O 263.28 1.78498 -0.00863946 0
M  V30 2837 C 260.38 3.38706 -0.114662 0
M  V30 2838 C 259.553 4.22717 -1.12379 0
M  V30 2839 C 258.612 5.23835 -0.498301 0
M  V30 2840 O 257.638 5.573 -1.15781 0
M  V30 2841 N 258.84 5.75886 0.730417 0
M  V30 2842 H 261.605 2.48055 -1.68193 0
M  V30 2843 H 259.166 1.25292 -1.02535 0
M  V30 2844 H 261.158 4.03464 0.315991 0
M  V30 2845 H 259.728 3.04569 0.704011 0
M  V30 2846 H 258.948 3.54122 -1.73179 0
M  V30 2847 H 260.236 4.75673 -1.80589 0
M  V30 2848 H 259.634 5.50911 1.28504 0
M  V30 2849 H 258.191 6.42387 1.10376 0
M  V30 2850 N 261.624 0.925811 1.2754 0
M  V30 2851 C 262.854 0.580666 1.98272 0
M  V30 2852 C 263.262 -0.845207 1.69272 0
M  V30 2853 O 262.605 -1.57306 0.948707 0
M  V30 2854 C 262.667 0.724418 3.52126 0
M  V30 2855 C 262.331 2.12206 4.04744 0
M  V30 2856 C 263.328 3.09604 4.17662 0
M  V30 2857 C 261.013 2.4385 4.39138 0
M  V30 2858 C 263.007 4.36755 4.64246 0
M  V30 2859 C 260.694 3.71237 4.85414 0
M  V30 2860 C 261.692 4.67503 4.97926 0
M  V30 2861 O 261.38 5.92624 5.43187 0
M  V30 2862 H 261.112 0.218987 0.639547 0
M  V30 2863 H 263.666 1.24452 1.63404 0
M  V30 2864 H 261.896 0.0034663 3.867 0
M  V30 2865 H 263.585 0.384607 4.04074 0
M  V30 2866 H 264.351 2.86478 3.91351 0
M  V30 2867 H 260.23 1.69665 4.28643 0
M  V30 2868 H 263.774 5.11898 4.73927 0
M  V30 2869 H 259.671 3.94182 5.11166 0
M  V30 2870 H 260.439 5.95585 5.61445 0
M  V30 2871 N 263.102 -1.41638 0.69111 0
M  V30 2872 C 264.351 -2.00526 0.217318 0
M  V30 2873 C 264.664 -1.55353 -1.18848 0
M  V30 2874 O 265.87 -2.06769 -1.75951 0
M  V30 2875 C 264.326 -3.58313 0.337639 0
M  V30 2876 C 263.934 -4.12469 1.74852 0
M  V30 2877 C 265.678 -4.24431 -0.0766066 0
M  V30 2878 C 263.585 -5.62675 1.82074 0
M  V30 2879 H 262.515 -0.750008 0.0774893 0
M  V30 2880 H 265.166 -1.6217 0.858661 0
M  V30 2881 H 263.548 -3.9425 -0.371879 0
M  V30 2882 H 264.722 -3.8796 2.48644 0
M  V30 2883 H 263.037 -3.58861 2.11205 0
M  V30 2884 H 265.634 -5.34683 -0.0430284 0
M  V30 2885 H 265.977 -4.01101 -1.1146 0
M  V30 2886 H 266.51 -3.93512 0.582476 0
M  V30 2887 H 263.249 -5.90826 2.83911 0
M  V30 2888 H 262.769 -5.89124 1.12661 0
M  V30 2889 H 264.448 -6.27371 1.58159 0
M  V30 2890 N 264.58 -0.43555 -1.51462 0
M  V30 2891 C 265.49 0.383001 -2.31453 0
M  V30 2892 C 266.506 1.02931 -1.4029 0
M  V30 2893 O 267.682 1.02507 -1.73362 0
M  V30 2894 C 264.747 1.47043 -3.13973 0
M  V30 2895 C 263.808 0.844433 -4.20913 0
M  V30 2896 C 263.041 1.88004 -4.9949 0
M  V30 2897 O 263.264 3.10199 -4.78678 0
M  V30 2898 O 262.198 1.47157 -5.83634 0
M  V30 2899 H 266.024 -0.269964 -3.02498 0
M  V30 2900 H 263.609 -0.19813 -1.4808 0
M  V30 2901 H 265.491 2.10113 -3.65281 0
M  V30 2902 H 264.166 2.10751 -2.45695 0
M  V30 2903 H 263.073 0.175729 -3.73687 0
M  V30 2904 H 264.406 0.250869 -4.9156 0
M  V30 2905 N 266.058 1.56714 -0.166846 0
M  V30 2906 C 267.474 1.58473 0.189372 0
M  V30 2907 C 267.674 1.18201 1.63189 0
M  V30 2908 O 266.73 0.891528 2.36237 0
M  V30 2909 C 268.043 3.00573 -0.0873872 0
M  V30 2910 C 269.591 3.1299 -0.0252443 0
M  V30 2911 C 270.066 4.57174 -0.274934 0
M  V30 2912 N 271.557 4.62665 -0.222553 0
M  V30 2913 C 272.292 5.72072 -0.389985 0
M  V30 2914 N 271.788 6.90054 -0.616229 0
M  V30 2915 N 273.581 5.61153 -0.326202 0
M  V30 2916 H 265.732 1.8118 -1.10849 0
M  V30 2917 H 267.995 0.839525 -0.440342 0
M  V30 2918 H 267.701 3.34497 -1.0865 0
M  V30 2919 H 267.575 3.72019 0.623037 0
M  V30 2920 H 269.962 2.78895 0.96444 0
M  V30 2921 H 270.043 2.43989 -0.768309 0
M  V30 2922 H 269.687 4.91976 -1.26181 0
M  V30 2923 H 269.617 5.24328 0.48869 0
M  V30 2924 H 272.108 3.77863 -0.0531512 0
M  V30 2925 H 272.421 7.69311 -0.733559 0
M  V30 2926 H 270.766 6.91927 -0.652791 0
M  V30 2927 H 273.957 4.67859 -0.150072 0
M  V30 2928 H 274.13 6.46364 -0.460116 0
M  V30 2929 N 267.536 -0.106894 1.57237 0
M  V30 2930 C 268.761 -0.830287 1.90055 0
M  V30 2931 C 269.186 -1.72064 0.75998 0
M  V30 2932 O 268.544 -1.78982 -0.288991 0
M  V30 2933 C 268.592 -1.6295 3.21683 0
M  V30 2934 O 267.696 -2.73748 3.08441 0
M  V30 2935 H 267.037 -0.228855 0.623315 0
M  V30 2936 H 269.567 -0.085658 2.04421 0
M  V30 2937 H 269.577 -2.01621 3.54701 0
M  V30 2938 H 268.252 -0.975989 4.04286 0
M  V30 2939 H 266.829 -2.38192 2.86913 0
M  V30 2940 N 269.014 -1.53014 -0.377408 0
M  V30 2941 C 269.977 -1.77957 -1.44444 0
M  V30 2942 C 270.977 -0.649763 -1.47087 0
M  V30 2943 O 272.167 -0.917897 -1.48055 0
M  V30 2944 C 269.299 -1.89089 -2.83651 0
M  V30 2945 H 270.492 -2.73243 -1.23606 0
M  V30 2946 H 268.045 -1.43912 -0.609844 0
M  V30 2947 H 268.78 -0.958293 -3.09818 0
M  V30 2948 H 268.565 -2.71254 -2.83132 0
M  V30 2949 H 270.055 -2.1002 -3.60945 0
M  V30 2950 N 270.492 0.636531 -1.44174 0
M  V30 2951 C 271.422 1.76003 -1.53444 0
M  V30 2952 C 272.403 1.65619 -0.387841 0
M  V30 2953 O 273.588 1.84461 -0.607257 0
M  V30 2954 C 270.718 3.14511 -1.4731 0
M  V30 2955 C 269.672 3.39677 -2.60391 0
M  V30 2956 C 268.998 4.78159 -2.39308 0
M  V30 2957 C 270.298 3.32772 -4.02567 0
M  V30 2958 H 271.992 1.68501 -2.47483 0
M  V30 2959 H 269.538 0.809237 -1.19111 0
M  V30 2960 H 271.491 3.92878 -1.52397 0
M  V30 2961 H 270.215 3.22783 -0.49785 0
M  V30 2962 H 268.874 2.63688 -2.54684 0
M  V30 2963 H 268.522 4.83128 -1.39988 0
M  V30 2964 H 268.222 4.95956 -3.15122 0
M  V30 2965 H 269.746 5.58762 -2.46205 0
M  V30 2966 H 271.16 4.01051 -4.09672 0
M  V30 2967 H 269.557 3.62104 -4.7854 0
M  V30 2968 H 270.627 2.30669 -4.2652 0
M  V30 2969 N 271.97 1.30982 0.876444 0
M  V30 2970 C 273.386 1.09498 1.16113 0
M  V30 2971 C 273.586 -0.13875 2.01022 0
M  V30 2972 O 272.642 -0.829935 2.38471 0
M  V30 2973 C 273.955 2.36308 1.85954 0
M  V30 2974 C 275.503 2.41856 1.98683 0
M  V30 2975 C 275.978 3.6853 2.71937 0
M  V30 2976 N 277.469 3.69387 2.79477 0
M  V30 2977 C 278.204 4.64096 3.36753 0
M  V30 2978 N 277.7 5.69155 3.95012 0
M  V30 2979 N 279.493 4.51626 3.3465 0
M  V30 2980 H 271.644 2.10118 0.310494 0
M  V30 2981 H 273.907 0.926634 0.200131 0
M  V30 2982 H 273.613 3.26388 1.31011 0
M  V30 2983 H 273.487 2.4561 2.86278 0
M  V30 2984 H 275.874 1.52249 2.52793 0
M  V30 2985 H 275.955 2.36523 0.9742 0
M  V30 2986 H 275.599 4.58499 2.18496 0
M  V30 2987 H 275.529 3.71127 3.73593 0
M  V30 2988 H 278.02 2.93438 2.38123 0
M  V30 2989 H 278.333 6.3751 4.36808 0
M  V30 2990 H 276.678 5.72937 3.93406 0
M  V30 2991 H 279.869 3.68728 2.8837 0
M  V30 2992 H 280.042 5.25614 3.7899 0
M  V30 2993 N 273.449 -1.08991 1.13837 0
M  V30 2994 C 274.697 -1.80899 0.901098 0
M  V30 2995 C 275.018 -1.86356 -0.574134 0
M  V30 2996 O 274.288 -1.35235 -1.41733 0
M  V30 2997 H 272.868 -0.669966 0.330386 0
M  V30 2998 H 275.53 -1.318 1.43578 0
M  V30 2999 H 274.626 -2.83929 1.29578 0
M  V30 3000 N 274.927 -0.932562 -1.27047 0
M  V30 3001 C 275.86 -0.379774 -2.25018 0
M  V30 3002 C 276.838 0.526587 -1.53837 0
M  V30 3003 O 278.022 0.465992 -1.82649 0
M  V30 3004 C 275.149 0.455187 -3.35627 0
M  V30 3005 C 274.195 -0.388428 -4.24728 0
M  V30 3006 S 275.028 -1.80701 -5.04091 0
M  V30 3007 C 276.184 -0.979865 -6.18182 0
M  V30 3008 H 276.417 -1.2101 -2.71558 0
M  V30 3009 H 273.95 -0.735078 -1.35779 0
M  V30 3010 H 275.908 0.931052 -3.99802 0
M  V30 3011 H 274.569 1.26009 -2.87716 0
M  V30 3012 H 273.762 0.25089 -5.03375 0
M  V30 3013 H 273.364 -0.798649 -3.65373 0
M  V30 3014 H 275.656 -0.218115 -6.77149 0
M  V30 3015 H 276.599 -1.73951 -6.86401 0
M  V30 3016 H 277.007 -0.51973 -5.62102 0
M  V30 3017 N 276.405 1.4127 -0.698611 0
M  V30 3018 C 277.335 2.33447 -0.049629 0
M  V30 3019 C 278.316 1.51982 0.763898 0
M  V30 3020 O 279.501 1.80509 0.716257 0
M  V30 3021 C 276.631 3.35828 0.885267 0
M  V30 3022 C 275.585 4.27627 0.178613 0
M  V30 3023 C 274.911 5.20406 1.22807 0
M  V30 3024 C 276.211 5.13459 -0.956933 0
M  V30 3025 H 277.905 2.87966 -0.81951 0
M  V30 3026 H 275.451 1.38461 -0.395538 0
M  V30 3027 H 277.404 3.9924 1.34854 0
M  V30 3028 H 276.128 2.79666 1.68685 0
M  V30 3029 H 274.787 3.65643 -0.26466 0
M  V30 3030 H 274.435 4.60558 2.02226 0
M  V30 3031 H 274.135 5.82661 0.760239 0
M  V30 3032 H 275.659 5.86695 1.69179 0
M  V30 3033 H 277.073 5.70421 -0.573805 0
M  V30 3034 H 275.47 5.8467 -1.35205 0
M  V30 3035 H 276.54 4.50443 -1.79524 0
M  V30 3036 N 277.883 0.443576 1.51229 0
M  V30 3037 C 279.108 -0.121648 2.07043 0
M  V30 3038 C 279.533 -1.35156 1.30823 0
M  V30 3039 O 278.891 -1.7793 0.347934 0
M  V30 3040 C 278.939 -0.41624 3.5819 0
M  V30 3041 O 278.043 -1.50163 3.8409 0
M  V30 3042 H 277.384 0.000871367 0.663999 0
M  V30 3043 H 279.914 0.626706 1.94765 0
M  V30 3044 H 279.924 -0.664867 4.02546 0
M  V30 3045 H 278.599 0.482653 4.1309 0
M  V30 3046 H 277.176 -1.24248 3.51592 0
M  V30 3047 N 279.361 -1.56624 0.175154 0
M  V30 3048 C 280.591 -2.01082 -0.474283 0
M  V30 3049 C 280.999 -1.05447 -1.57091 0
M  V30 3050 O 280.342 -0.0480595 -1.83637 0
M  V30 3051 C 280.404 -3.41963 -1.10911 0
M  V30 3052 C 280.068 -4.56742 -0.153666 0
M  V30 3053 C 281.065 -5.16076 0.629448 0
M  V30 3054 C 278.75 -5.02277 -0.0483776 0
M  V30 3055 C 280.744 -6.19377 1.50501 0
M  V30 3056 C 278.431 -6.05427 0.830768 0
M  V30 3057 C 279.429 -6.63849 1.60605 0
M  V30 3058 O 279.117 -7.64998 2.47049 0
M  V30 3059 H 278.849 -0.664261 -0.125432 0
M  V30 3060 H 281.403 -2.03549 0.275163 0
M  V30 3061 H 279.633 -3.36422 -1.90676 0
M  V30 3062 H 281.322 -3.70352 -1.66114 0
M  V30 3063 H 282.088 -4.81776 0.558297 0
M  V30 3064 H 277.967 -4.56513 -0.641611 0
M  V30 3065 H 281.511 -6.64906 2.1106 0
M  V30 3066 H 277.408 -6.39151 0.903107 0
M  V30 3067 H 278.176 -7.82336 2.40607 0
M  V30 3068 N 280.839 0.0985539 -1.57292 0
M  V30 3069 C 282.088 0.801358 -1.85098 0
M  V30 3070 C 282.401 1.80066 -0.763902 0
M  V30 3071 O 283.607 2.55112 -0.928981 0
M  V30 3072 C 282.063 1.47599 -3.28242 0
M  V30 3073 C 281.671 0.516624 -4.45011 0
M  V30 3074 C 283.415 2.16272 -3.65276 0
M  V30 3075 C 281.322 1.19564 -5.79188 0
M  V30 3076 H 280.252 0.303022 -0.69043 0
M  V30 3077 H 282.903 0.0542623 -1.8342 0
M  V30 3078 H 281.285 2.27042 -3.2445 0
M  V30 3079 H 282.459 -0.246065 -4.60143 0
M  V30 3080 H 280.774 -0.064227 -4.1635 0
M  V30 3081 H 283.371 2.67802 -4.62803 0
M  V30 3082 H 283.714 2.95009 -2.93727 0
M  V30 3083 H 284.247 1.43693 -3.70941 0
M  V30 3084 H 280.986 0.449157 -6.53959 0
M  V30 3085 H 280.506 1.92984 -5.67906 0
M  V30 3086 H 282.185 1.7231 -6.23633 0
M  V30 3087 N 282.317 1.53212 0.369288 0
M  V30 3088 C 283.728 1.60943 0.946276 0
M  V30 3089 C 284.079 0.47452 1.90375 0
M  V30 3090 O 283.204 -0.399597 2.12679 0
M  V30 3091 C 283.799 2.91715 1.72302 0
M  V30 3092 C 282.358 3.01792 2.24941 0
M  V30 3093 C 281.505 2.56211 1.06072 0
M  V30 3094 H 284.456 1.58007 0.148198 0
M  V30 3095 H 284.477 2.79309 2.58393 0
M  V30 3096 H 283.989 3.74295 1.0259 0
M  V30 3097 H 282.09 2.23791 2.97906 0
M  V30 3098 H 282.203 4.06803 2.53077 0
M  V30 3099 H 280.567 2.10998 1.4266 0
M  V30 3100 H 281.35 3.41206 0.378639 0
M  V30 3101 N 283.795 -0.628877 1.44509 0
M  V30 3102 C 285.206 -1.21054 1.42137 0
M  V30 3103 C 285.557 -1.95715 0.137881 0
M  V30 3104 O 284.682 -2.02554 -0.761645 0
M  V30 3105 C 285.277 -2.20189 2.57493 0
M  V30 3106 C 283.836 -2.73777 2.58308 0
M  V30 3107 C 282.983 -1.48813 2.33987 0
M  V30 3108 H 285.934 -0.41942 1.53057 0
M  V30 3109 H 285.955 -3.02833 2.30375 0
M  V30 3110 H 285.467 -1.6582 3.50892 0
M  V30 3111 H 283.568 -3.32142 1.68856 0
M  V30 3112 H 283.681 -3.19662 3.56865 0
M  V30 3113 H 282.045 -1.77024 1.83124 0
M  V30 3114 H 282.828 -0.963442 3.29504 0
M  V30 3115 N 285.273 -1.31445 -0.869486 0
M  V30 3116 C 286.183 -1.21097 -2.0093 0
M  V30 3117 C 287.199 -0.127584 -1.73532 0
M  V30 3118 O 288.375 -0.345477 -1.98415 0
M  V30 3119 C 285.44 -0.919378 -3.34288 0
M  V30 3120 C 284.501 -2.08971 -3.75006 0
M  V30 3121 C 283.734 -1.81194 -5.02001 0
M  V30 3122 O 283.957 -0.747296 -5.65484 0
M  V30 3123 O 282.891 -2.66883 -5.39497 0
M  V30 3124 H 286.717 -2.16883 -2.12592 0
M  V30 3125 H 284.302 -1.11189 -0.997868 0
M  V30 3126 H 286.184 -0.772625 -4.14257 0
M  V30 3127 H 284.859 0.00844772 -3.23699 0
M  V30 3128 H 283.766 -2.29187 -2.95676 0
M  V30 3129 H 285.099 -2.9998 -3.90221 0
M  V30 3130 N 286.751 1.08385 -1.14413 0
M  V30 3131 C 287.684 2.14642 -0.774871 0
M  V30 3132 C 288.662 1.60761 0.243876 0
M  V30 3133 O 289.846 1.88031 0.132883 0
M  V30 3134 C 286.973 3.38366 -0.150491 0
M  V30 3135 C 286.019 4.10997 -1.13945 0
M  V30 3136 S 286.852 4.63797 -2.67679 0
M  V30 3137 C 288.008 5.90808 -2.06631 0
M  V30 3138 H 288.241 2.45633 -1.67487 0
M  V30 3139 H 285.774 1.20498 -0.96538 0
M  V30 3140 H 287.732 4.09996 0.203334 0
M  V30 3141 H 286.393 3.05572 0.72694 0
M  V30 3142 H 285.586 4.99783 -0.65059 0
M  V30 3143 H 285.188 3.4528 -1.43727 0
M  V30 3144 H 287.48 6.62411 -1.4219 0
M  V30 3145 H 288.423 6.4439 -2.93542 0
M  V30 3146 H 288.831 5.4383 -1.51357 0
M  V30 3147 N 288.23 0.939286 1.26551 0
M  V30 3148 C 289.477 0.585847 1.9384 0
M  V30 3149 C 289.805 -0.874784 1.73718 0
M  V30 3150 O 289.06 -1.64092 1.06642 0
M  V30 3151 C 289.359 0.872106 3.46596 0
M  V30 3152 C 289.025 2.31632 3.86856 0
M  V30 3153 C 287.687 2.71111 3.97558 0
M  V30 3154 C 290.039 3.25494 4.07066 0
M  V30 3155 C 287.367 4.03553 4.25866 0
M  V30 3156 C 289.719 4.57531 4.36862 0
M  V30 3157 C 288.383 4.96828 4.45778 0
M  V30 3158 H 287.653 0.214377 0.709312 0
M  V30 3159 H 290.3 1.18544 1.50398 0
M  V30 3160 H 288.605 0.18996 3.91339 0
M  V30 3161 H 290.302 0.577442 3.96821 0
M  V30 3162 H 286.892 2.00008 3.79071 0
M  V30 3163 H 291.076 2.9619 3.98227 0
M  V30 3164 H 286.332 4.33665 4.30981 0
M  V30 3165 H 290.506 5.30254 4.51446 0
M  V30 3166 H 288.133 5.99482 4.67468 0
M  V30 3167 N 289.708 -1.40897 0.706093 0
M  V30 3168 C 290.638 -2.33418 0.0620085 0
M  V30 3169 C 291.619 -1.52385 -0.755827 0
M  V30 3170 O 292.804 -1.80886 -0.706674 0
M  V30 3171 C 289.934 -3.36293 -0.867445 0
M  V30 3172 C 288.888 -4.27716 -0.155932 0
M  V30 3173 C 288.214 -5.2105 -1.20046 0
M  V30 3174 C 289.514 -5.12944 0.984149 0
M  V30 3175 H 291.208 -2.87527 0.83477 0
M  V30 3176 H 288.754 -1.38249 0.402875 0
M  V30 3177 H 290.707 -3.99949 -1.32735 0
M  V30 3178 H 289.431 -2.80556 -1.67199 0
M  V30 3179 H 288.09 -3.65498 0.284047 0
M  V30 3180 H 287.738 -4.61624 -1.99781 0
M  V30 3181 H 287.438 -5.83056 -0.729328 0
M  V30 3182 H 288.962 -5.87584 -1.66066 0
M  V30 3183 H 290.376 -5.70109 0.604048 0
M  V30 3184 H 288.773 -5.83945 1.38304 0
M  V30 3185 H 289.843 -4.49485 1.81911 0
M  V30 3186 N 291.186 -0.45159 -1.50991 0
M  V30 3187 C 292.096 0.358431 -2.31846 0
M  V30 3188 C 293.112 1.01438 -1.41373 0
M  V30 3189 O 294.288 1.00663 -1.74439 0
M  V30 3190 C 291.353 1.43704 -3.15515 0
M  V30 3191 C 290.414 0.799742 -4.21785 0
M  V30 3192 C 289.647 1.82696 -5.01456 0
M  V30 3193 O 289.87 3.05105 -4.81941 0
M  V30 3194 O 288.804 1.40958 -5.85162 0
M  V30 3195 H 292.63 -0.302032 -3.02194 0
M  V30 3196 H 290.215 -0.213825 -1.47862 0
M  V30 3197 H 292.097 2.06227 -3.67489 0
M  V30 3198 H 290.772 2.08133 -2.47916 0
M  V30 3199 H 289.679 0.136084 -3.73852 0
M  V30 3200 H 291.012 0.198718 -4.91799 0
M  V30 3201 N 292.664 1.56529 -0.183458 0
M  V30 3202 C 293.889 2.02064 0.467428 0
M  V30 3203 C 294.314 1.06282 1.55196 0
M  V30 3204 O 293.672 0.0443565 1.81246 0
M  V30 3205 C 293.72 3.46122 1.01153 0
M  V30 3206 O 292.824 3.53437 2.12499 0
M  V30 3207 H 292.165 0.654726 0.110588 0
M  V30 3208 H 294.695 2.02521 -0.290917 0
M  V30 3209 H 294.705 3.85676 1.33108 0
M  V30 3210 H 293.38 4.15331 0.217533 0
M  V30 3211 H 291.957 3.2575 1.81497 0
M  V30 3212 N 294.142 -0.090211 1.57342 0
M  V30 3213 C 295.09 -1.12792 2.03422 0
M  V30 3214 C 296.084 -1.41182 0.936166 0
M  V30 3215 O 297.29 -1.40805 1.12133 0
M  V30 3216 H 293.665 -0.380986 0.648347 0
M  V30 3217 H 295.636 -0.71299 2.89757 0
M  V30 3218 C 294.385 -2.43855 2.47851 0
M  V30 3219 H 293.708 -2.22855 3.31927 0
M  V30 3220 H 295.148 -3.14955 2.83865 0
M  V30 3221 C 293.607 -3.08503 1.3538 0
M  V30 3222 O 294.137 -3.95805 0.685641 0
M  V30 3223 N 292.343 -2.68831 1.10355 0
M  V30 3224 H 291.89 -1.97929 1.64869 0
M  V30 3225 H 291.848 -3.12412 0.353031 0
M  V30 3226 N 295.62 -1.53406 -0.361157 0
M  V30 3227 C 296.567 -1.80156 -1.44265 0
M  V30 3228 C 297.537 -0.646183 -1.53015 0
M  V30 3229 O 298.722 -0.888818 -1.68833 0
M  V30 3230 C 295.862 -2.00116 -2.81154 0
M  V30 3231 C 294.975 -3.27833 -2.81335 0
M  V30 3232 C 294.11 -3.37957 -4.09828 0
M  V30 3233 C 293.149 -4.59689 -4.04168 0
M  V30 3234 N 292.286 -4.66942 -5.24318 0
M  V30 3235 H 297.126 -2.72438 -1.20754 0
M  V30 3236 H 294.663 -1.34954 -0.585296 0
M  V30 3237 H 296.621 -2.09677 -3.60682 0
M  V30 3238 H 295.251 -1.11167 -3.03054 0
M  V30 3239 H 294.303 -3.27204 -1.94014 0
M  V30 3240 H 295.615 -4.17442 -2.73027 0
M  V30 3241 H 294.769 -3.46853 -4.97773 0
M  V30 3242 H 293.508 -2.46372 -4.20894 0
M  V30 3243 H 292.513 -4.50889 -3.14609 0
M  V30 3244 H 293.738 -5.5262 -3.947 0
M  V30 3245 H 291.684 -3.7826 -5.35962 0
M  V30 3246 H 291.601 -5.50462 -5.18197 0
M  V30 3247 H 292.869 -4.80127 -6.14084 0
M  V30 3248 N 297.098 0.621204 -1.44841 0
M  V30 3249 C 298.061 1.71459 -1.521 0
M  V30 3250 C 299.061 1.55696 -0.401933 0
M  V30 3251 O 300.251 1.61011 -0.664925 0
M  V30 3252 C 297.383 3.10624 -1.40447 0
M  V30 3253 H 298.576 1.66394 -2.49506 0
M  V30 3254 H 296.129 0.835745 -1.3208 0
M  V30 3255 H 296.864 3.21277 -0.441737 0
M  V30 3256 H 296.649 3.23473 -2.21602 0
M  V30 3257 H 298.139 3.90293 -1.4853 0
M  V30 3258 N 298.576 1.31904 0.862503 0
M  V30 3259 C 299.987 1.19803 1.43193 0
M  V30 3260 C 300.338 -0.192567 1.95253 0
M  V30 3261 O 299.463 -1.09081 1.86896 0
M  V30 3262 C 300.058 2.16883 2.60283 0
M  V30 3263 C 298.617 2.08692 3.13248 0
M  V30 3264 C 297.764 2.05691 1.85975 0
M  V30 3265 H 300.715 1.43846 0.670365 0
M  V30 3266 H 300.736 1.76278 3.37204 0
M  V30 3267 H 300.248 3.18083 2.22363 0
M  V30 3268 H 298.349 1.10713 3.55771 0
M  V30 3269 H 298.462 2.9815 3.75025 0
M  V30 3270 H 296.826 1.50814 2.05249 0
M  V30 3271 H 297.609 3.08659 1.50282 0
M  V30 3272 N 300.054 -1.07777 1.14986 0
M  V30 3273 C 301.302 -1.79934 0.920235 0
M  V30 3274 C 301.623 -1.86955 -0.554336 0
M  V30 3275 O 300.893 -1.36731 -1.40291 0
M  V30 3276 H 299.473 -0.666424 0.337473 0
M  V30 3277 H 302.135 -1.3027 1.44968 0
M  V30 3278 H 301.231 -2.82539 1.32583 0
M  V30 3279 N 301.532 -0.945985 -1.26051 0
M  V30 3280 C 302.943 -0.638096 -1.75457 0
M  V30 3281 C 303.294 0.846672 -1.76991 0
M  V30 3282 O 302.419 1.66262 -1.38513 0
M  V30 3283 C 303.014 -1.15157 -3.18629 0
M  V30 3284 C 301.573 -0.894004 -3.65629 0
M  V30 3285 C 300.72 -1.29967 -2.44957 0
M  V30 3286 H 303.671 -1.12376 -1.1206 0
M  V30 3287 H 303.692 -0.507615 -3.77099 0
M  V30 3288 H 303.204 -2.23222 -3.1748 0
M  V30 3289 H 301.305 0.172057 -3.72203 0
M  V30 3290 H 301.418 -1.52439 -4.54202 0
M  V30 3291 H 299.782 -0.718078 -2.44368 0
M  V30 3292 H 300.565 -2.38935 -2.46505 0
M  V30 3293 N 303.011 1.40521 -0.713556 0
M  V30 3294 C 303.958 2.30723 -0.059684 0
M  V30 3295 C 304.928 1.48079 0.752448 0
M  V30 3296 O 306.113 1.76823 0.71681 0
M  V30 3297 C 303.253 3.34274 0.857594 0
M  V30 3298 C 302.366 4.31986 0.0351536 0
M  V30 3299 C 301.501 5.22605 0.951724 0
M  V30 3300 C 300.54 6.11976 0.123253 0
M  V30 3301 N 299.677 6.9502 0.99459 0
M  V30 3302 H 304.517 2.86074 -0.834596 0
M  V30 3303 H 302.054 1.40879 -0.42326 0
M  V30 3304 H 304.012 3.92879 1.40364 0
M  V30 3305 H 302.642 2.8043 1.59871 0
M  V30 3306 H 301.694 3.7518 -0.628052 0
M  V30 3307 H 303.006 4.95101 -0.606347 0
M  V30 3308 H 302.16 5.86131 1.56638 0
M  V30 3309 H 300.899 4.59759 1.62705 0
M  V30 3310 H 299.904 5.47482 -0.50435 0
M  V30 3311 H 301.129 6.76881 -0.548539 0
M  V30 3312 H 299.075 6.34764 1.6556 0
M  V30 3313 H 298.992 7.54892 0.40908 0
M  V30 3314 H 300.26 7.62997 1.59549 0
M  V30 3315 N 304.489 0.459591 1.5075 0
M  V30 3316 C 305.719 -0.0972338 2.06371 0
M  V30 3317 C 306.127 -1.35074 1.32483 0
M  V30 3318 O 305.47 -1.79637 0.384226 0
M  V30 3319 C 305.532 -0.462759 3.56509 0
M  V30 3320 C 305.196 0.687084 4.51805 0
M  V30 3321 C 306.193 1.56578 4.95761 0
M  V30 3322 C 303.878 0.874144 4.94635 0
M  V30 3323 C 305.872 2.61604 5.81242 0
M  V30 3324 C 303.559 1.92765 5.79901 0
M  V30 3325 C 304.557 2.79697 6.23104 0
M  V30 3326 O 304.245 3.83235 7.06673 0
M  V30 3327 H 303.977 -0.00140687 0.675999 0
M  V30 3328 H 306.531 0.644011 1.95043 0
M  V30 3329 H 304.761 -1.25703 3.65699 0
M  V30 3330 H 306.45 -0.953323 3.94546 0
M  V30 3331 H 307.216 1.4329 4.6335 0
M  V30 3332 H 303.095 0.207006 4.60535 0
M  V30 3333 H 306.639 3.29489 6.14884 0
M  V30 3334 H 302.536 2.06064 6.11725 0
M  V30 3335 H 303.304 3.80084 7.24899 0
M  V30 3336 N 305.967 -1.56429 0.191757 0
M  V30 3337 C 307.244 -1.89224 -0.495332 0
M  V30 3338 C 307.624 -1.10478 -1.79883 0
M  V30 3339 O 306.972 -0.204852 -2.2758 0
M  V30 3340 C 307.182 -3.41548 -0.717367 0
M  V30 3341 C 308.53 -4.11711 -1.03823 0
M  V30 3342 O 309.554 -3.4698 -0.805204 0
M  V30 3343 O 308.413 -5.2611 -1.47887 0
M  V30 3344 H 305.507 -0.785788 -0.25781 0
M  V30 3345 H 308.053 -1.68111 0.231721 0
M  V30 3346 H 306.825 -3.90772 0.203287 0
M  V30 3347 H 306.448 -3.68342 -1.497 0
M  V30 3348 N 307.445 0.0818655 -1.57387 0
M  V30 3349 C 308.691 0.784074 -1.8703 0
M  V30 3350 C 309.024 1.77729 -0.782689 0
M  V30 3351 O 308.299 1.93384 0.208051 0
M  V30 3352 C 308.582 1.50105 -3.27323 0
M  V30 3353 C 308.435 0.524925 -4.46727 0
M  V30 3354 C 309.754 2.44843 -3.65705 0
M  V30 3355 H 306.873 0.283582 -0.680257 0
M  V30 3356 H 309.515 0.0474352 -1.89941 0
M  V30 3357 H 307.665 2.12897 -3.24972 0
M  V30 3358 H 309.337 -0.0970111 -4.61198 0
M  V30 3359 H 307.58 -0.160606 -4.33503 0
M  V30 3360 H 308.251 1.064 -5.41648 0
M  V30 3361 H 310.727 1.92135 -3.69085 0
M  V30 3362 H 309.603 2.92018 -4.64776 0
M  V30 3363 H 309.864 3.29197 -2.95096 0
M  V30 3364 N 308.923 1.53595 0.353017 0
M  V30 3365 C 310.153 1.74058 1.11299 0
M  V30 3366 C 310.561 0.475205 1.83135 0
M  V30 3367 O 309.904 -0.562344 1.74881 0
M  V30 3368 C 309.966 2.85994 2.17825 0
M  V30 3369 C 309.63 4.25923 1.65647 0
M  V30 3370 C 310.627 5.07829 1.11383 0
M  V30 3371 C 308.312 4.72377 1.7078 0
M  V30 3372 C 310.306 6.34285 0.629439 0
M  V30 3373 C 307.993 5.98808 1.21953 0
M  V30 3374 C 308.991 6.79594 0.681265 0
M  V30 3375 O 308.679 8.03651 0.200248 0
M  V30 3376 H 308.411 0.585327 0.338183 0
M  V30 3377 H 310.965 2.01186 0.413927 0
M  V30 3378 H 309.195 2.54368 2.91262 0
M  V30 3379 H 310.884 2.94515 2.79313 0
M  V30 3380 H 311.65 4.73107 1.06746 0
M  V30 3381 H 307.529 4.0956 2.11617 0
M  V30 3382 H 311.073 6.97288 0.208636 0
M  V30 3383 H 306.97 6.33026 1.26287 0
M  V30 3384 H 307.738 8.1788 0.318416 0
M  V30 3385 N 310.401 -0.613514 1.45168 0
M  V30 3386 C 311.626 -1.40437 1.52618 0
M  V30 3387 C 312.051 -1.87438 0.157707 0
M  V30 3388 O 311.409 -1.59791 -0.856537 0
M  V30 3389 C 311.457 -2.58894 2.51011 0
M  V30 3390 O 310.561 -3.59326 2.02382 0
M  V30 3391 H 309.902 -0.419506 0.514695 0
M  V30 3392 H 312.432 -0.747215 1.90467 0
M  V30 3393 H 312.442 -3.06214 2.69624 0
M  V30 3394 H 311.117 -2.24032 3.50403 0
M  V30 3395 H 309.694 -3.18695 1.93618 0
M  V30 3396 N 311.879 -1.3236 -0.855495 0
M  V30 3397 C 313.126 -1.22872 -1.60962 0
M  V30 3398 C 313.454 0.209658 -1.93367 0
M  V30 3399 O 312.709 1.16243 -1.57436 0
M  V30 3400 C 313.008 -2.03275 -2.93963 0
M  V30 3401 C 312.674 -3.5264 -2.80991 0
M  V30 3402 C 311.336 -3.93364 -2.7716 0
M  V30 3403 C 313.688 -4.47626 -2.66983 0
M  V30 3404 C 311.016 -5.27319 -2.572 0
M  V30 3405 C 313.368 -5.81723 -2.48558 0
M  V30 3406 C 312.032 -6.2165 -2.4312 0
M  V30 3407 H 311.302 -0.44962 -0.589001 0
M  V30 3408 H 313.949 -1.63777 -0.992442 0
M  V30 3409 H 312.254 -1.55095 -3.59795 0
M  V30 3410 H 313.951 -1.93303 -3.51333 0
M  V30 3411 H 310.541 -3.20295 -2.84797 0
M  V30 3412 H 314.725 -4.17084 -2.68988 0
M  V30 3413 H 309.981 -5.57311 -2.51424 0
M  V30 3414 H 314.155 -6.5494 -2.36699 0
M  V30 3415 H 311.782 -7.25388 -2.27412 0
M  V30 3416 N 313.357 1.07166 -1.15556 0
M  V30 3417 C 314.32 2.12589 -0.856644 0
M  V30 3418 C 315.32 1.6015 0.14444 0
M  V30 3419 O 316.51 1.7399 -0.0854163 0
M  V30 3420 C 313.642 3.39753 -0.279405 0
M  V30 3421 H 314.835 2.40539 -1.79112 0
M  V30 3422 H 312.388 1.23086 -0.963298 0
M  V30 3423 H 313.123 3.17447 0.663174 0
M  V30 3424 H 312.908 3.79117 -1.00063 0
M  V30 3425 H 314.398 4.17507 -0.0879113 0
M  V30 3426 N 314.835 0.952656 1.25548 0
M  V30 3427 C 316.084 0.602053 1.92505 0
M  V30 3428 C 316.397 -0.864663 1.75451 0
M  V30 3429 O 317.603 -1.32514 2.36965 0
M  V30 3430 C 316.059 1.02607 3.44963 0
M  V30 3431 C 315.667 2.51519 3.70732 0
M  V30 3432 C 317.411 0.747905 4.1786 0
M  V30 3433 C 315.318 2.87732 5.16686 0
M  V30 3434 H 314.248 0.22146 0.720744 0
M  V30 3435 H 316.899 1.15684 1.42441 0
M  V30 3436 H 315.281 0.399712 3.93978 0
M  V30 3437 H 316.455 3.19157 3.32378 0
M  V30 3438 H 314.77 2.76786 3.11092 0
M  V30 3439 H 317.367 0.994647 5.25367 0
M  V30 3440 H 317.71 -0.315629 4.15102 0
M  V30 3441 H 318.243 1.33452 3.74747 0
M  V30 3442 H 314.982 3.93095 5.24554 0
M  V30 3443 H 314.502 2.24765 5.56094 0
M  V30 3444 H 316.181 2.76817 5.84792 0
M  V30 3445 N 316.313 -1.40141 0.720998 0
M  V30 3446 C 317.559 -2.01084 0.263231 0
M  V30 3447 C 317.892 -1.57052 -1.14229 0
M  V30 3448 O 317.167 -0.793027 -1.77599 0
M  V30 3449 C 317.45 -3.58401 0.349344 0
M  V30 3450 C 317.303 -4.12491 1.79363 0
M  V30 3451 C 318.622 -4.39231 -0.276351 0
M  V30 3452 H 315.741 -0.730572 0.0971228 0
M  V30 3453 H 318.383 -1.66543 0.914518 0
M  V30 3454 H 316.533 -3.87958 -0.205165 0
M  V30 3455 H 318.205 -3.93711 2.40394 0
M  V30 3456 H 316.448 -3.66576 2.31958 0
M  V30 3457 H 317.119 -5.21646 1.80524 0
M  V30 3458 H 319.595 -4.15637 0.196184 0
M  V30 3459 H 318.471 -5.48586 -0.185681 0
M  V30 3460 H 318.732 -4.20643 -1.36059 0
M  V30 3461 N 317.792 -0.46758 -1.50504 0
M  V30 3462 C 319.041 0.0902868 -2.01498 0
M  V30 3463 C 319.354 1.411 -1.35463 0
M  V30 3464 O 320.56 2.0536 -1.77594 0
M  V30 3465 C 319.016 0.21142 -3.59278 0
M  V30 3466 C 318.624 -1.10065 -4.34269 0
M  V30 3467 C 320.368 0.721433 -4.18325 0
M  V30 3468 C 318.275 -0.943505 -5.83825 0
M  V30 3469 H 317.205 0.037517 -0.753066 0
M  V30 3470 H 319.856 -0.601943 -1.73346 0
M  V30 3471 H 318.238 0.967352 -3.84003 0
M  V30 3472 H 319.412 -1.86726 -4.21272 0
M  V30 3473 H 317.727 -1.5415 -3.86816 0
M  V30 3474 H 320.324 0.85598 -5.27804 0
M  V30 3475 H 320.667 1.71186 -3.79475 0
M  V30 3476 H 321.2 0.0229843 -3.97793 0
M  V30 3477 H 317.939 -1.90719 -6.27141 0
M  V30 3478 H 317.459 -0.217213 -5.99407 0
M  V30 3479 H 319.138 -0.608715 -6.4413 0
M  V30 3480 N 319.27 1.56325 -0.20005 0
M  V30 3481 C 320.516 1.98772 0.431408 0
M  V30 3482 C 320.871 1.0849 1.58895 0
M  V30 3483 O 320.164 0.130331 1.91156 0
M  V30 3484 C 320.358 3.4495 0.935103 0
M  V30 3485 C 320.187 4.49371 -0.172096 0
M  V30 3486 C 318.957 5.0134 -0.631377 0
M  V30 3487 C 321.155 5.04822 -0.982806 0
M  V30 3488 N 319.137 5.89433 -1.71588 0
M  V30 3489 C 320.508 5.89632 -1.91661 0
M  V30 3490 C 322.563 4.87242 -1.02467 0
M  V30 3491 C 321.266 6.58741 -2.88881 0
M  V30 3492 C 323.292 5.57094 -1.98494 0
M  V30 3493 C 322.654 6.41655 -2.90617 0
M  V30 3494 H 318.753 0.771922 0.125144 0
M  V30 3495 H 321.337 1.92266 -0.306883 0
M  V30 3496 H 319.508 3.51946 1.64282 0
M  V30 3497 H 321.24 3.74354 1.53758 0
M  V30 3498 H 317.995 4.73071 -0.223827 0
M  V30 3499 H 318.419 6.38182 -2.25948 0
M  V30 3500 H 323.061 4.21538 -0.326408 0
M  V30 3501 H 320.779 7.23641 -3.5968 0
M  V30 3502 H 324.365 5.45466 -2.0238 0
M  V30 3503 H 323.245 6.94755 -3.63711 0
M  V30 3504 N 320.748 -0.0735177 1.57428 0
M  V30 3505 C 321.658 -1.10547 2.06922 0
M  V30 3506 C 322.674 -1.42506 0.998402 0
M  V30 3507 O 323.85 -1.52717 1.31299 0
M  V30 3508 C 320.915 -2.40019 2.50184 0
M  V30 3509 C 319.976 -2.15046 3.71556 0
M  V30 3510 C 319.209 -3.38345 4.12745 0
M  V30 3511 O 319.432 -4.47399 3.53822 0
M  V30 3512 O 318.366 -3.2666 5.05546 0
M  V30 3513 H 322.192 -0.715013 2.95163 0
M  V30 3514 H 319.777 -0.287531 1.46607 0
M  V30 3515 H 321.659 -3.16218 2.78539 0
M  V30 3516 H 320.334 -2.78447 1.65072 0
M  V30 3517 H 319.241 -1.36558 3.48285 0
M  V30 3518 H 320.574 -1.81499 4.57514 0
M  V30 3519 N 322.226 -1.5378 -0.344866 0
M  V30 3520 C 323.156 -1.84662 -1.42906 0
M  V30 3521 C 324.137 -0.701648 -1.54955 0
M  V30 3522 O 325.322 -0.953438 -1.69184 0
M  V30 3523 C 322.452 -2.05503 -2.79974 0
M  V30 3524 C 321.406 -3.21318 -2.82734 0
M  V30 3525 C 320.732 -3.2749 -4.22675 0
M  V30 3526 C 322.032 -4.59456 -2.48389 0
M  V30 3527 H 323.726 -2.75461 -1.17311 0
M  V30 3528 H 321.272 -1.32542 -0.562896 0
M  V30 3529 H 323.225 -2.25691 -3.55867 0
M  V30 3530 H 321.949 -1.11434 -3.07002 0
M  V30 3531 H 320.608 -3.00984 -2.09294 0
M  V30 3532 H 320.256 -2.31019 -4.4681 0
M  V30 3533 H 319.956 -4.05316 -4.25433 0
M  V30 3534 H 321.48 -3.49887 -5.00412 0
M  V30 3535 H 322.894 -4.79667 -3.13995 0
M  V30 3536 H 321.291 -5.39675 -2.62432 0
M  V30 3537 H 322.361 -4.63155 -1.4358 0
M  V30 3538 N 323.704 0.605807 -1.45491 0
M  V30 3539 C 324.634 1.72709 -1.57143 0
M  V30 3540 C 325.615 1.6476 -0.422884 0
M  V30 3541 O 326.8 1.83132 -0.646247 0
M  V30 3542 C 323.93 3.11316 -1.53948 0
M  V30 3543 C 322.884 3.34077 -2.67537 0
M  V30 3544 C 322.21 4.72975 -2.49397 0
M  V30 3545 C 323.51 3.24158 -4.09535 0
M  V30 3546 H 325.204 1.63214 -2.51001 0
M  V30 3547 H 322.75 0.78379 -1.208 0
M  V30 3548 H 324.703 3.89557 -1.60696 0
M  V30 3549 H 323.427 3.21655 -0.566205 0
M  V30 3550 H 322.086 2.58227 -2.6022 0
M  V30 3551 H 321.734 4.8005 -1.50205 0
M  V30 3552 H 321.434 4.8916 -3.25571 0
M  V30 3553 H 322.958 5.53414 -2.58002 0
M  V30 3554 H 324.372 3.92271 -4.18086 0
M  V30 3555 H 322.769 3.51872 -4.86113 0
M  V30 3556 H 323.839 2.2157 -4.31317 0
M  V30 3557 N 325.182 1.32811 0.848464 0
M  V30 3558 C 326.41 1.26739 1.63538 0
M  V30 3559 C 326.825 -0.163484 1.88091 0
M  V30 3560 O 326.182 -1.10258 1.45429 0
M  V30 3561 C 326.233 2.03013 2.99112 0
M  V30 3562 O 325.954 3.40518 2.75643 0
M  V30 3563 C 327.455 2.04038 3.93552 0
M  V30 3564 H 324.675 0.437024 0.509167 0
M  V30 3565 H 327.219 1.75033 1.05753 0
M  V30 3566 H 325.374 1.58426 3.53525 0
M  V30 3567 H 325.788 3.79635 3.61908 0
M  V30 3568 H 327.262 2.61877 4.85926 0
M  V30 3569 H 327.739 1.0282 4.26995 0
M  V30 3570 H 328.345 2.486 3.45077 0
M  V30 3571 N 326.66 -1.06551 1.16123 0
M  V30 3572 C 327.592 -2.13908 0.823171 0
M  V30 3573 C 328.605 -1.61926 -0.16843 0
M  V30 3574 O 329.794 -1.78412 0.055962 0
M  V30 3575 C 326.894 -3.38283 0.204424 0
M  V30 3576 C 326.067 -4.19589 1.23548 0
M  V30 3577 C 325.126 -5.2233 0.637011 0
M  V30 3578 O 324.152 -5.54034 1.30516 0
M  V30 3579 N 325.354 -5.77621 -0.577474 0
M  V30 3580 H 328.119 -2.43508 1.74711 0
M  V30 3581 H 325.68 -1.2253 1.05821 0
M  V30 3582 H 327.672 -4.0416 -0.208909 0
M  V30 3583 H 326.242 -3.06329 -0.623012 0
M  V30 3584 H 325.462 -3.49406 1.82507 0
M  V30 3585 H 326.75 -4.70718 1.93137 0
M  V30 3586 H 326.148 -5.54125 -1.13853 0
M  V30 3587 H 324.705 -6.45087 -0.933053 0
M  V30 3588 N 328.138 -0.959301 -1.25041 0
M  V30 3589 C 329.085 -0.482057 -2.2571 0
M  V30 3590 C 330.055 0.467939 -1.59372 0
M  V30 3591 O 331.24 0.380159 -1.86974 0
M  V30 3592 C 328.38 0.229623 -3.44335 0
M  V30 3593 C 327.493 -0.758156 -4.25295 0
M  V30 3594 C 326.628 -0.0234403 -5.31195 0
M  V30 3595 C 325.667 -1.00184 -6.03846 0
M  V30 3596 N 324.804 -0.29769 -7.01469 0
M  V30 3597 H 329.644 -1.34538 -2.65901 0
M  V30 3598 H 327.181 -0.674592 -1.3072 0
M  V30 3599 H 329.139 0.658856 -4.11965 0
M  V30 3600 H 327.769 1.05696 -3.05005 0
M  V30 3601 H 326.821 -1.30586 -3.57284 0
M  V30 3602 H 328.133 -1.50458 -4.75567 0
M  V30 3603 H 327.287 0.464201 -6.04922 0
M  V30 3604 H 326.026 0.755741 -4.81809 0
M  V30 3605 H 325.031 -1.50044 -5.2893 0
M  V30 3606 H 326.256 -1.78133 -6.55321 0
M  V30 3607 H 324.202 0.462668 -6.54366 0
M  V30 3608 H 324.119 -0.983128 -7.4958 0
M  V30 3609 H 325.387 0.16826 -7.79318 0
M  V30 3610 N 329.616 1.39756 -0.72842 0
M  V30 3611 C 330.563 2.30647 -0.0841519 0
M  V30 3612 C 331.533 1.48869 0.7367 0
M  V30 3613 O 332.718 1.77574 0.698015 0
M  V30 3614 C 329.858 3.35165 0.822091 0
M  V30 3615 C 328.971 4.31999 -0.0106663 0
M  V30 3616 C 328.106 5.23585 0.896241 0
M  V30 3617 C 327.145 6.12072 0.0583381 0
M  V30 3618 N 326.282 6.96035 0.920818 0
M  V30 3619 H 331.122 2.85173 -0.864891 0
M  V30 3620 H 328.659 1.40422 -0.438179 0
M  V30 3621 H 330.617 3.94345 1.36189 0
M  V30 3622 H 329.247 2.8211 1.56888 0
M  V30 3623 H 328.299 3.74492 -0.66781 0
M  V30 3624 H 329.611 4.9443 -0.658825 0
M  V30 3625 H 328.765 5.87759 1.50412 0
M  V30 3626 H 327.504 4.61459 1.57819 0
M  V30 3627 H 326.509 5.46916 -0.562389 0
M  V30 3628 H 327.734 6.76261 -0.6203 0
M  V30 3629 H 325.68 6.36485 1.58818 0
M  V30 3630 H 325.597 7.55284 0.32899 0
M  V30 3631 H 326.865 7.64646 1.51447 0
M  V30 3632 N 331.094 0.475555 1.50254 0
M  V30 3633 C 332.505 0.0215174 1.86688 0
M  V30 3634 C 332.856 -1.38467 1.39001 0
M  V30 3635 O 331.981 -2.02732 0.756894 0
M  V30 3636 C 332.576 0.0322715 3.38785 0
M  V30 3637 C 331.135 -0.366314 3.74613 0
M  V30 3638 C 330.282 0.415832 2.74164 0
M  V30 3639 H 333.233 0.689612 1.42934 0
M  V30 3640 H 333.254 -0.76889 3.7265 0
M  V30 3641 H 332.766 1.05584 3.73462 0
M  V30 3642 H 330.867 -1.39406 3.45538 0
M  V30 3643 H 330.98 -0.064555 4.79057 0
M  V30 3644 H 329.344 -0.131048 2.54363 0
M  V30 3645 H 330.127 1.43899 3.11686 0
M  V30 3646 N 332.573 -1.56217 0.208337 0
M  V30 3647 C 333.803 -2.02043 -0.431523 0
M  V30 3648 C 334.211 -1.08755 -1.54819 0
M  V30 3649 O 333.554 -0.0870009 -1.83494 0
M  V30 3650 C 333.616 -3.44239 -1.03633 0
M  V30 3651 C 333.28 -4.56965 -0.0567502 0
M  V30 3652 C 334.277 -5.14624 0.738773 0
M  V30 3653 C 331.962 -5.02266 0.0581736 0
M  V30 3654 C 333.956 -6.16045 1.63605 0
M  V30 3655 C 331.643 -6.03528 0.959001 0
M  V30 3656 C 332.641 -6.60293 1.7465 0
M  V30 3657 O 332.329 -7.59586 2.6322 0
M  V30 3658 H 332.061 -0.666772 -0.111313 0
M  V30 3659 H 334.615 -2.02919 0.318277 0
M  V30 3660 H 332.845 -3.40391 -1.83497 0
M  V30 3661 H 334.534 -3.73793 -1.58221 0
M  V30 3662 H 335.3 -4.80483 0.660364 0
M  V30 3663 H 331.179 -4.57771 -0.544633 0
M  V30 3664 H 334.723 -6.60279 2.25116 0
M  V30 3665 H 330.62 -6.37092 1.03848 0
M  V30 3666 H 331.388 -7.77057 2.57148 0
M  V30 3667 N 334.051 0.0651679 -1.57465 0
M  V30 3668 C 335.276 0.779605 -1.9219 0
M  V30 3669 C 335.701 1.69988 -0.805333 0
M  V30 3670 O 335.059 1.79685 0.241435 0
M  V30 3671 C 335.107 1.54364 -3.2589 0
M  V30 3672 O 334.211 2.65474 -3.1559 0
M  V30 3673 H 333.552 0.212249 -0.629163 0
M  V30 3674 H 336.082 0.0314294 -2.04576 0
M  V30 3675 H 336.092 1.92146 -3.59922 0
M  V30 3676 H 334.767 0.868457 -4.06732 0
M  V30 3677 H 333.344 2.30501 -2.93128 0
M  V30 3678 N 335.529 1.53961 0.336706 0
M  V30 3679 C 336.777 1.71197 1.07405 0
M  V30 3680 C 337.098 0.481475 1.88962 0
M  V30 3681 O 336.368 -0.504585 1.8929 0
M  V30 3682 H 334.948 0.631185 0.399517 0
M  V30 3683 H 337.61 1.91232 0.376323 0
M  V30 3684 H 336.706 2.58587 1.74755 0
M  V30 3685 N 337.007 -0.598083 1.45811 0
M  V30 3686 C 338.254 -1.35681 1.50323 0
M  V30 3687 C 338.582 -1.9393 0.148739 0
M  V30 3688 O 337.837 -1.76094 -0.853787 0
M  V30 3689 C 338.136 -2.51669 2.53766 0
M  V30 3690 C 337.802 -2.11508 3.98215 0
M  V30 3691 C 336.464 -2.0027 4.37545 0
M  V30 3692 C 338.816 -1.80308 4.89018 0
M  V30 3693 C 336.144 -1.56067 5.65562 0
M  V30 3694 C 338.496 -1.37589 6.17456 0
M  V30 3695 C 337.16 -1.24916 6.55708 0
M  V30 3696 H 336.43 -0.496492 0.550069 0
M  V30 3697 H 339.077 -0.675052 1.79207 0
M  V30 3698 H 337.382 -3.25225 2.18486 0
M  V30 3699 H 339.079 -3.09895 2.54492 0
M  V30 3700 H 335.669 -2.21185 3.67117 0
M  V30 3701 H 339.853 -1.87884 4.59362 0
M  V30 3702 H 335.109 -1.44886 5.93985 0
M  V30 3703 H 339.283 -1.12495 6.87254 0
M  V30 3704 H 336.91 -0.904386 7.54801 0
M  V30 3705 N 338.485 -1.33259 -0.841409 0
M  V30 3706 C 339.433 -1.23279 -1.97244 0
M  V30 3707 C 340.427 -0.134706 -1.68864 0
M  V30 3708 O 341.633 -0.298501 -1.77508 0
M  V30 3709 H 338.008 -0.382497 -0.647457 0
M  V30 3710 H 339.979 -2.18906 -2.02787 0
M  V30 3711 C 338.728 -0.986268 -3.33419 0
M  V30 3712 H 338.051 -1.82347 -3.55794 0
M  V30 3713 H 339.491 -0.956728 -4.13065 0
M  V30 3714 C 337.95 0.310842 -3.35463 0
M  V30 3715 O 338.48 1.31838 -3.79449 0
M  V30 3716 N 336.686 0.337485 -2.88634 0
M  V30 3717 H 336.233 -0.482967 -2.53032 0
M  V30 3718 H 336.191 1.20518 -2.90384 0
M  V30 3719 N 339.963 1.05934 -1.16686 0
M  V30 3720 C 340.896 2.1295 -0.820225 0
M  V30 3721 C 341.874 1.61242 0.209722 0
M  V30 3722 O 343.058 1.88271 0.0929688 0
M  V30 3723 C 340.185 3.3797 -0.22223 0
M  V30 3724 C 339.231 4.08488 -1.22637 0
M  V30 3725 S 340.064 4.58015 -2.77457 0
M  V30 3726 C 341.22 5.86292 -2.19117 0
M  V30 3727 H 341.453 2.42025 -1.72659 0
M  V30 3728 H 338.986 1.18423 -0.990722 0
M  V30 3729 H 340.944 4.10335 0.116322 0
M  V30 3730 H 339.605 3.07045 0.66196 0
M  V30 3731 H 338.798 4.98291 -0.756455 0
M  V30 3732 H 338.4 3.42154 -1.51019 0
M  V30 3733 H 340.692 6.59246 -1.56209 0
M  V30 3734 H 341.635 6.38019 -3.07144 0
M  V30 3735 H 342.043 5.40497 -1.62858 0
M  V30 3736 N 341.441 0.965919 1.2453 0
M  V30 3737 C 342.374 0.4393 2.23932 0
M  V30 3738 C 343.352 -0.485615 1.55179 0
M  V30 3739 O 344.536 -0.417402 1.83821 0
M  V30 3740 C 341.663 -0.366042 3.36716 0
M  V30 3741 C 340.709 0.5009 4.23548 0
M  V30 3742 S 341.542 1.94002 4.99123 0
M  V30 3743 C 342.698 1.14342 6.15367 0
M  V30 3744 H 342.931 1.28167 2.68254 0
M  V30 3745 H 340.464 0.770819 1.33782 0
M  V30 3746 H 342.422 -0.824724 4.0213 0
M  V30 3747 H 341.083 -1.18337 2.90956 0
M  V30 3748 H 340.276 -0.117341 5.03863 0
M  V30 3749 H 339.878 0.89524 3.63127 0
M  V30 3750 H 342.17 0.397572 6.76332 0
M  V30 3751 H 343.113 1.92089 6.81548 0
M  V30 3752 H 343.521 0.668579 5.60527 0
M  V30 3753 N 342.919 -1.39368 0.735821 0
M  V30 3754 C 343.852 -2.28155 0.0451175 0
M  V30 3755 C 344.83 -1.44433 -0.746852 0
M  V30 3756 O 346.014 -1.73823 -0.729237 0
M  V30 3757 C 343.141 -3.253 -0.943266 0
M  V30 3758 C 342.187 -4.25826 -0.239685 0
M  V30 3759 S 343.02 -5.25166 1.04693 0
M  V30 3760 C 344.176 -6.2587 0.0611639 0
M  V30 3761 H 344.409 -2.86388 0.79807 0
M  V30 3762 H 341.942 -1.45104 0.527653 0
M  V30 3763 H 343.9 -3.81789 -1.50824 0
M  V30 3764 H 342.561 -2.66085 -1.66906 0
M  V30 3765 H 341.754 -4.94229 -0.987596 0
M  V30 3766 H 341.356 -3.73141 0.253274 0
M  V30 3767 H 343.648 -6.73007 -0.778941 0
M  V30 3768 H 344.591 -7.04508 0.712362 0
M  V30 3769 H 344.999 -5.63639 -0.311602 0
M  V30 3770 N 344.397 -0.483516 -1.5 0
M  V30 3771 C 345.646 0.0689102 -2.01582 0
M  V30 3772 C 345.959 1.39655 -1.36952 0
M  V30 3773 O 347.165 2.03465 -1.79762 0
M  V30 3774 C 345.621 0.173302 -3.59483 0
M  V30 3775 C 345.229 -1.14665 -4.33077 0
M  V30 3776 C 346.973 0.677024 -4.19066 0
M  V30 3777 C 344.88 -1.00537 -5.82792 0
M  V30 3778 H 343.81 0.0295277 -0.753422 0
M  V30 3779 H 346.461 -0.620295 -1.72698 0
M  V30 3780 H 344.843 0.926569 -3.85007 0
M  V30 3781 H 346.017 -1.91184 -4.19268 0
M  V30 3782 H 344.332 -1.58244 -3.85159 0
M  V30 3783 H 346.929 0.799952 -5.28682 0
M  V30 3784 H 347.272 1.67151 -3.81269 0
M  V30 3785 H 347.805 -0.0192083 -3.97795 0
M  V30 3786 H 344.544 -1.9736 -6.25083 0
M  V30 3787 H 344.064 -0.280776 -5.99142 0
M  V30 3788 H 345.743 -0.677 -6.43448 0
M  V30 3789 N 345.875 1.56104 -0.216619 0
M  V30 3790 C 347.124 1.97348 0.416744 0
M  V30 3791 C 347.437 1.10715 1.6125 0
M  V30 3792 O 348.643 1.41836 2.31506 0
M  V30 3793 C 347.099 3.51059 0.792835 0
M  V30 3794 C 346.707 4.46387 -0.379828 0
M  V30 3795 C 348.451 4.01026 1.39208 0
M  V30 3796 C 346.358 5.91397 0.0184223 0
M  V30 3797 H 345.288 0.736942 0.159475 0
M  V30 3798 H 347.939 1.80827 -0.31205 0
M  V30 3799 H 346.321 3.63162 1.57891 0
M  V30 3800 H 347.495 4.46029 -1.15737 0
M  V30 3801 H 345.81 4.06734 -0.891979 0
M  V30 3802 H 348.407 5.0686 1.70286 0
M  V30 3803 H 348.75 3.46587 2.30614 0
M  V30 3804 H 349.283 3.92125 0.669537 0
M  V30 3805 H 346.022 6.49807 -0.862002 0
M  V30 3806 H 345.542 5.94961 0.760384 0
M  V30 3807 H 347.221 6.45455 0.446818 0
M  V30 3808 N 347.353 -0.0568162 1.57498 0
M  V30 3809 C 348.602 -0.752001 1.87157 0
M  V30 3810 C 348.915 -1.77978 0.811375 0
M  V30 3811 O 350.121 -2.52559 0.996293 0
M  V30 3812 C 348.577 -1.38844 3.3204 0
M  V30 3813 C 348.185 -0.398456 4.46225 0
M  V30 3814 C 349.929 -2.06512 3.70882 0
M  V30 3815 C 347.836 -1.04166 5.82154 0
M  V30 3816 H 346.766 -0.28461 0.698222 0
M  V30 3817 H 349.417 -0.00561272 1.83499 0
M  V30 3818 H 347.799 -2.1836 3.30356 0
M  V30 3819 H 348.973 0.367977 4.59328 0
M  V30 3820 H 347.288 0.174592 4.16034 0
M  V30 3821 H 349.885 -2.55437 4.6974 0
M  V30 3822 H 350.228 -2.87117 3.01445 0
M  V30 3823 H 350.761 -1.33808 3.7462 0
M  V30 3824 H 347.5 -0.275614 6.5492 0
M  V30 3825 H 347.02 -1.7786 5.72823 0
M  V30 3826 H 348.699 -1.55715 6.27982 0
M  V30 3827 N 348.832 -1.54138 -0.328536 0
M  V30 3828 C 350.248 -1.44736 -0.672574 0
M  V30 3829 C 350.448 -0.616217 -1.91846 0
M  V30 3830 O 349.504 -0.113067 -2.52247 0
M  V30 3831 C 350.817 -2.884 -0.851217 0
M  V30 3832 C 352.365 -2.98271 -0.948877 0
M  V30 3833 C 352.84 -4.43074 -1.15973 0
M  V30 3834 N 354.331 -4.46665 -1.22658 0
M  V30 3835 C 355.066 -5.55857 -1.40751 0
M  V30 3836 N 354.562 -6.75026 -1.5592 0
M  V30 3837 N 356.355 -5.43495 -1.4342 0
M  V30 3838 H 348.506 -2.06661 0.490421 0
M  V30 3839 H 350.769 -0.934812 0.157579 0
M  V30 3840 H 350.475 -3.51699 -0.00704236 0
M  V30 3841 H 350.349 -3.34225 -1.74853 0
M  V30 3842 H 352.736 -2.35102 -1.78356 0
M  V30 3843 H 352.817 -2.55785 -0.0281435 0
M  V30 3844 H 352.461 -5.06827 -0.329915 0
M  V30 3845 H 352.391 -4.83165 -2.09426 0
M  V30 3846 H 354.882 -3.60797 -1.124 0
M  V30 3847 H 355.195 -7.54004 -1.69404 0
M  V30 3848 H 353.54 -6.77944 -1.53027 0
M  V30 3849 H 356.731 -4.49349 -1.31162 0
M  V30 3850 H 356.904 -6.28649 -1.57178 0
M  V30 3851 N 350.31 0.590341 -1.46126 0
M  V30 3852 C 351.556 1.35082 -1.51264 0
M  V30 3853 C 351.889 1.93534 -0.160711 0
M  V30 3854 O 351.164 1.76045 0.826956 0
M  V30 3855 C 351.447 2.48588 -2.6053 0
M  V30 3856 C 351.3 1.95221 -4.05227 0
M  V30 3857 C 352.619 3.50662 -2.6594 0
M  V30 3858 H 349.738 0.489803 -0.550692 0
M  V30 3859 H 352.38 0.663887 -1.78024 0
M  V30 3860 H 350.53 3.07186 -2.37843 0
M  V30 3861 H 352.202 1.41139 -4.39178 0
M  V30 3862 H 350.445 1.26101 -4.15068 0
M  V30 3863 H 351.116 2.77121 -4.77397 0
M  V30 3864 H 353.592 3.01934 -2.86313 0
M  V30 3865 H 352.468 4.27551 -3.44226 0
M  V30 3866 H 352.729 4.07399 -1.71694 0
M  V30 3867 N 351.788 1.33704 0.83433 0
M  V30 3868 C 352.751 1.24244 1.92603 0
M  V30 3869 C 353.751 0.160383 1.59998 0
M  V30 3870 O 354.941 0.412228 1.69252 0
M  V30 3871 C 352.073 0.91555 3.28376 0
M  V30 3872 H 353.266 2.21287 2.02416 0
M  V30 3873 H 350.819 1.17827 1.02696 0
M  V30 3874 H 351.554 -0.0521886 3.24258 0
M  V30 3875 H 351.339 1.69811 3.53422 0
M  V30 3876 H 352.829 0.874231 4.08347 0
M  V30 3877 N 353.266 -1.05314 1.17247 0
M  V30 3878 C 354.229 -2.112 0.890357 0
M  V30 3879 C 355.229 -1.60359 -0.118943 0
M  V30 3880 O 356.419 -1.73833 0.113086 0
M  V30 3881 C 353.551 -3.39266 0.333422 0
M  V30 3882 H 354.744 -2.37659 1.82916 0
M  V30 3883 H 352.297 -1.21538 0.982758 0
M  V30 3884 H 353.032 -3.18462 -0.612587 0
M  V30 3885 H 352.817 -3.77477 1.06082 0
M  V30 3886 H 354.307 -4.17315 0.154322 0
M  V30 3887 N 354.744 -0.972509 -1.24016 0
M  V30 3888 C 355.992 -0.635776 -1.91839 0
M  V30 3889 C 356.313 0.832312 -1.76345 0
M  V30 3890 O 355.583 1.5946 -1.13795 0
M  V30 3891 H 354.163 -0.232157 -0.710009 0
M  V30 3892 H 356.825 -1.23462 -1.50809 0
M  V30 3893 H 355.921 -0.880545 -2.99421 0
M  V30 3894 N 356.222 1.38976 -0.743202 0
M  V30 3895 C 357.155 2.28128 -0.0572165 0
M  V30 3896 C 358.133 1.44827 0.739182 0
M  V30 3897 O 359.317 1.74207 0.720009 0
M  V30 3898 C 356.444 3.25796 0.926001 0
M  V30 3899 C 355.49 4.25947 0.217099 0
M  V30 3900 S 356.323 5.24604 -1.07477 0
M  V30 3901 C 357.479 6.25829 -0.0943545 0
M  V30 3902 H 357.712 2.85961 -0.813246 0
M  V30 3903 H 355.245 1.44822 -0.535341 0
M  V30 3904 H 357.203 3.82583 1.48797 0
M  V30 3905 H 355.864 2.66966 1.65493 0
M  V30 3906 H 355.057 4.94746 0.961372 0
M  V30 3907 H 354.659 3.73002 -0.273059 0
M  V30 3908 H 356.951 6.73411 0.743239 0
M  V30 3909 H 357.894 7.0412 -0.749713 0
M  V30 3910 H 358.302 5.63797 0.281706 0
M  V30 3911 N 357.7 0.491464 1.49741 0
M  V30 3912 C 359.116 0.146835 1.58923 0
M  V30 3913 C 359.316 -1.34804 1.49767 0
M  V30 3914 O 358.372 -2.12317 1.36667 0
M  V30 3915 C 359.685 0.715157 2.92072 0
M  V30 3916 C 361.233 0.680407 3.05515 0
M  V30 3917 C 361.708 1.22663 4.41269 0
M  V30 3918 N 363.199 1.18691 4.47735 0
M  V30 3919 C 363.934 1.57984 5.51207 0
M  V30 3920 N 363.43 2.04824 6.6183 0
M  V30 3921 N 365.223 1.49459 5.41866 0
M  V30 3922 H 357.374 1.46347 1.53936 0
M  V30 3923 H 359.637 0.606453 0.728642 0
M  V30 3924 H 359.343 1.76317 3.04311 0
M  V30 3925 H 359.217 0.17018 3.76816 0
M  V30 3926 H 361.604 -0.358743 2.92911 0
M  V30 3927 H 361.685 1.26242 2.22478 0
M  V30 3928 H 361.329 2.26451 4.54623 0
M  V30 3929 H 361.259 0.620637 5.2293 0
M  V30 3930 H 363.75 0.843605 3.68364 0
M  V30 3931 H 364.063 2.32901 7.3687 0
M  V30 3932 H 362.408 2.08791 6.62896 0
M  V30 3933 H 365.599 1.12692 4.54333 0
M  V30 3934 H 365.772 1.80406 6.22381 0
M  V30 3935 N 359.178 -1.55987 0.224894 0
M  V30 3936 C 360.589 -1.84553 -0.282345 0
M  V30 3937 C 360.94 -1.14634 -1.59227 0
M  V30 3938 O 360.065 -0.417155 -2.12341 0
M  V30 3939 C 360.66 -3.348 -0.519062 0
M  V30 3940 C 359.219 -3.63671 -0.970604 0
M  V30 3941 C 358.366 -2.77277 -0.0355261 0
M  V30 3942 H 361.317 -1.52245 0.448006 0
M  V30 3943 H 361.338 -3.55187 -1.36463 0
M  V30 3944 H 360.85 -3.8566 0.43449 0
M  V30 3945 H 358.951 -3.1827 -1.9374 0
M  V30 3946 H 359.064 -4.71631 -0.842698 0
M  V30 3947 H 357.428 -2.48846 -0.542927 0
M  V30 3948 H 358.211 -3.30937 0.913003 0
M  V30 3949 N 360.656 0.0484629 -1.57525 0
M  V30 3950 C 361.881 0.759177 -1.93006 0
M  V30 3951 C 362.306 1.69125 -0.823317 0
M  V30 3952 O 361.664 1.79931 0.222364 0
M  V30 3953 C 361.712 1.50899 -3.27509 0
M  V30 3954 O 360.816 2.62112 -3.18388 0
M  V30 3955 H 360.157 0.205564 -0.631379 0
M  V30 3956 H 362.687 0.00972959 -2.04598 0
M  V30 3957 H 362.697 1.88317 -3.6194 0
M  V30 3958 H 361.372 0.825269 -4.0763 0
M  V30 3959 H 359.949 2.27379 -2.95556 0
M  V30 3960 N 362.134 1.5431 0.320358 0
M  V30 3961 C 363.064 1.86912 1.3995 0
M  V30 3962 C 364.045 0.726211 1.53819 0
M  V30 3963 O 365.23 0.980233 1.67646 0
M  V30 3964 C 362.36 2.09932 2.7667 0
M  V30 3965 C 361.314 3.25776 2.77586 0
M  V30 3966 C 360.64 3.34173 4.17412 0
M  V30 3967 C 361.94 4.6335 2.41048 0
M  V30 3968 H 363.634 2.77292 1.12914 0
M  V30 3969 H 361.18 1.33421 0.541738 0
M  V30 3970 H 363.133 2.31324 3.52232 0
M  V30 3971 H 361.857 1.16304 3.0519 0
M  V30 3972 H 360.516 3.04276 2.04479 0
M  V30 3973 H 360.164 2.38098 4.43078 0
M  V30 3974 H 359.864 4.12033 4.18931 0
M  V30 3975 H 361.388 3.57803 4.94782 0
M  V30 3976 H 362.802 4.84602 3.06324 0
M  V30 3977 H 361.199 5.43782 2.53813 0
M  V30 3978 H 362.269 4.65381 1.36193 0
M  V30 3979 N 363.613 -0.582584 1.46437 0
M  V30 3980 C 364.545 -1.70618 1.53043 0
M  V30 3981 C 365.558 -1.57322 0.418769 0
M  V30 3982 O 366.747 -1.64744 0.687136 0
M  V30 3983 C 363.847 -3.08869 1.39474 0
M  V30 3984 C 363.02 -3.48166 2.64762 0
M  V30 3985 C 362.079 -4.65478 2.4539 0
M  V30 3986 O 361.105 -4.71333 3.19114 0
M  V30 3987 N 362.307 -5.60365 1.51564 0
M  V30 3988 H 365.072 -1.65405 2.49923 0
M  V30 3989 H 362.633 -0.768567 1.42494 0
M  V30 3990 H 364.625 -3.85143 1.24287 0
M  V30 3991 H 363.195 -3.08449 0.507758 0
M  V30 3992 H 362.415 -2.61598 2.9489 0
M  V30 3993 H 363.703 -3.71188 3.4799 0
M  V30 3994 H 363.101 -5.5837 0.907705 0
M  V30 3995 H 361.658 -6.36068 1.4234 0
M  V30 3996 N 365.091 -1.34144 -0.827227 0
M  V30 3997 C 366.502 -1.23557 -1.39966 0
M  V30 3998 C 366.853 0.140731 -1.95695 0
M  V30 3999 O 365.978 1.04087 -1.89723 0
M  V30 4000 C 366.573 -2.23708 -2.54441 0
M  V30 4001 C 365.132 -2.16924 -3.07605 0
M  V30 4002 C 364.279 -2.10549 -1.80456 0
M  V30 4003 H 367.23 -1.45573 -0.631991 0
M  V30 4004 H 367.251 -1.85157 -3.32411 0
M  V30 4005 H 366.763 -3.23866 -2.13851 0
M  V30 4006 H 364.864 -1.20107 -3.52711 0
M  V30 4007 H 364.977 -3.07988 -3.66988 0
M  V30 4008 H 363.341 -1.56203 -2.01178 0
M  V30 4009 H 364.124 -3.12535 -1.42046 0
M  V30 4010 N 366.569 1.04691 -1.17803 0
M  V30 4011 C 367.815 1.78045 -0.970969 0
M  V30 4012 C 368.148 1.87686 0.498751 0
M  V30 4013 O 367.423 1.38035 1.37027 0
M  V30 4014 C 367.706 3.2166 -1.61884 0
M  V30 4015 C 367.559 3.20001 -3.161 0
M  V30 4016 C 368.878 4.1962 -1.3269 0
M  V30 4017 H 365.997 0.64633 -0.354155 0
M  V30 4018 H 368.639 1.22333 -1.45378 0
M  V30 4019 H 366.789 3.69232 -1.20831 0
M  V30 4020 H 368.461 2.80467 -3.66246 0
M  V30 4021 H 366.704 2.58203 -3.48588 0
M  V30 4022 H 367.375 4.21386 -3.56564 0
M  V30 4023 H 369.851 3.80567 -1.68249 0
M  V30 4024 H 368.727 5.18339 -1.80599 0
M  V30 4025 H 368.988 4.414 -0.248622 0
M  V30 4026 N 368.047 0.979072 1.23499 0
M  V30 4027 C 369.272 0.664845 1.96455 0
M  V30 4028 C 369.697 -0.761287 1.72006 0
M  V30 4029 O 369.055 -1.51837 0.990713 0
M  V30 4030 C 369.103 0.959479 3.47601 0
M  V30 4031 O 368.207 0.0508168 4.12369 0
M  V30 4032 H 367.548 0.250185 0.615064 0
M  V30 4033 H 370.078 1.31231 1.5697 0
M  V30 4034 H 370.088 0.895642 3.98048 0
M  V30 4035 H 368.763 1.99876 3.64723 0
M  V30 4036 H 367.34 0.16895 3.72517 0
M  V30 4037 N 369.525 -1.3858 0.750561 0
M  V30 4038 C 370.802 -1.94231 0.231009 0
M  V30 4039 C 371.182 -1.68611 -1.27018 0
M  V30 4040 O 370.53 -1.02296 -2.04323 0
M  V30 4041 C 370.74 -3.44123 0.581428 0
M  V30 4042 C 372.088 -4.2116 0.539389 0
M  V30 4043 O 373.112 -3.52391 0.519541 0
M  V30 4044 O 371.971 -5.43749 0.54765 0
M  V30 4045 H 369.065 -0.825639 0.0474263 0
M  V30 4046 H 371.611 -1.4799 0.830478 0
M  V30 4047 H 370.383 -3.56267 1.61833 0
M  V30 4048 H 370.006 -3.97573 -0.0462047 0
M  V30 4049 N 371.003 -0.499398 -1.49478 0
M  V30 4050 C 371.935 0.316575 -2.27003 0
M  V30 4051 C 372.948 0.932047 -1.33479 0
M  V30 4052 O 374.137 0.815658 -1.58774 0
M  V30 4053 C 371.237 1.46055 -3.05812 0
M  V30 4054 C 370.41 0.952679 -4.26899 0
M  V30 4055 C 369.469 1.97407 -4.87767 0
M  V30 4056 O 368.495 1.54326 -5.4788 0
M  V30 4057 N 369.697 3.30436 -4.77276 0
M  V30 4058 H 372.462 -0.348168 -2.97671 0
M  V30 4059 H 370.023 -0.33185 -1.58463 0
M  V30 4060 H 372.015 2.14135 -3.43407 0
M  V30 4061 H 370.585 2.02948 -2.37762 0
M  V30 4062 H 369.805 0.0968248 -3.94081 0
M  V30 4063 H 371.093 0.59174 -5.05347 0
M  V30 4064 H 370.491 3.68126 -4.29534 0
M  V30 4065 H 369.048 3.94235 -5.19059 0
M  V30 4066 N 372.481 1.55866 -0.233164 0
M  V30 4067 C 373.727 1.99643 0.389148 0
M  V30 4068 C 374.082 1.11836 1.56558 0
M  V30 4069 O 373.375 0.170848 1.90837 0
M  V30 4070 C 373.569 3.46856 0.861724 0
M  V30 4071 C 373.398 4.48904 -0.267376 0
M  V30 4072 C 372.168 4.99888 -0.737577 0
M  V30 4073 C 374.366 5.02624 -1.08966 0
M  V30 4074 N 372.348 5.8566 -1.84052 0
M  V30 4075 C 373.719 5.85434 -2.04125 0
M  V30 4076 C 375.774 4.84959 -1.12779 0
M  V30 4077 C 374.477 6.52466 -3.02789 0
M  V30 4078 C 376.503 5.52759 -2.10266 0
M  V30 4079 C 375.865 6.35346 -3.04162 0
M  V30 4080 H 371.964 0.774402 0.108742 0
M  V30 4081 H 374.548 1.91572 -0.347596 0
M  V30 4082 H 372.719 3.55352 1.5678 0
M  V30 4083 H 374.451 3.77531 1.45783 0
M  V30 4084 H 371.206 4.7249 -0.324122 0
M  V30 4085 H 371.63 6.33246 -2.39434 0
M  V30 4086 H 376.272 4.20751 -0.415749 0
M  V30 4087 H 373.99 7.15849 -3.74948 0
M  V30 4088 H 377.576 5.41051 -2.13905 0
M  V30 4089 H 376.456 6.86883 -3.78366 0
M  V30 4090 N 373.959 -0.0401083 1.57549 0
M  V30 4091 C 375.37 -0.588097 1.77196 0
M  V30 4092 C 375.721 -1.76209 0.862832 0
M  V30 4093 O 374.846 -2.16331 0.0548389 0
M  V30 4094 C 375.441 -1.07363 3.21339 0
M  V30 4095 C 374 -1.56723 3.42221 0
M  V30 4096 C 373.147 -0.50041 2.72747 0
M  V30 4097 H 376.098 0.186119 1.57605 0
M  V30 4098 H 376.119 -1.94143 3.27244 0
M  V30 4099 H 375.631 -0.218975 3.87482 0
M  V30 4100 H 373.732 -2.4441 2.81237 0
M  V30 4101 H 373.845 -1.62234 4.50796 0
M  V30 4102 H 372.209 -0.952894 2.36203 0
M  V30 4103 H 372.992 0.344599 3.41566 0
M  V30 4104 N 375.437 -1.54477 -0.31217 0
M  V30 4105 C 376.662 -1.77526 -1.07235 0
M  V30 4106 C 377.087 -0.527775 -1.80544 0
M  V30 4107 O 376.445 0.52121 -1.73646 0
M  V30 4108 C 376.493 -2.97535 -2.03728 0
M  V30 4109 O 375.597 -2.69878 -3.11833 0
M  V30 4110 H 374.938 -0.58792 -0.30862 0
M  V30 4111 H 377.468 -2.01532 -0.352993 0
M  V30 4112 H 377.478 -3.25198 -2.46395 0
M  V30 4113 H 376.153 -3.87996 -1.49774 0
M  V30 4114 H 374.73 -2.53199 -2.7376 0
M  V30 4115 N 376.915 0.57481 -1.46744 0
M  V30 4116 C 377.825 1.711 -1.60505 0
M  V30 4117 C 378.841 1.67008 -0.488307 0
M  V30 4118 O 380.017 1.86774 -0.753495 0
M  V30 4119 C 377.082 3.07608 -1.59932 0
M  V30 4120 C 376.143 3.22904 -2.82898 0
M  V30 4121 C 375.376 4.529 -2.82343 0
M  V30 4122 O 375.599 5.37278 -1.91542 0
M  V30 4123 O 374.533 4.71611 -3.73987 0
M  V30 4124 H 378.359 1.62436 -2.56609 0
M  V30 4125 H 375.944 0.742779 -1.29627 0
M  V30 4126 H 377.826 3.88877 -1.62336 0
M  V30 4127 H 376.501 3.16692 -0.669898 0
M  V30 4128 H 375.408 2.41099 -2.86046 0
M  V30 4129 H 376.741 3.18715 -3.75076 0
M  V30 4130 N 378.394 1.34581 0.820102 0
M  V30 4131 C 379.357 1.2628 1.91275 0
M  V30 4132 C 380.357 0.177344 1.59819 0
M  V30 4133 O 381.547 0.430156 1.68806 0
M  V30 4134 C 378.679 0.950327 3.27386 0
M  V30 4135 H 379.872 2.23421 2.00057 0
M  V30 4136 H 377.425 1.1891 1.0144 0
M  V30 4137 H 378.16 -0.0177938 3.24295 0
M  V30 4138 H 377.945 1.73549 3.51601 0
M  V30 4139 H 379.435 0.917492 4.07396 0
M  V30 4140 N 379.872 -1.04064 1.18357 0
M  V30 4141 C 380.804 -2.12114 0.868358 0
M  V30 4142 C 381.817 -1.62247 -0.134045 0
M  V30 4143 O 383.006 -1.78253 0.0937933 0
M  V30 4144 C 380.106 -3.37773 0.276132 0
M  V30 4145 C 379.279 -4.16874 1.3242 0
M  V30 4146 C 378.338 -5.20861 0.747662 0
M  V30 4147 O 377.364 -5.51141 1.42239 0
M  V30 4148 N 378.566 -5.78715 -0.454823 0
M  V30 4149 H 381.331 -2.39748 1.79836 0
M  V30 4150 H 378.892 -1.20258 1.08396 0
M  V30 4151 H 380.884 -4.04513 -0.123133 0
M  V30 4152 H 379.454 -3.07581 -0.557895 0
M  V30 4153 H 378.674 -3.45456 1.89878 0
M  V30 4154 H 379.962 -4.66516 2.03078 0
M  V30 4155 H 379.36 -5.56415 -1.02073 0
M  V30 4156 H 377.917 -6.46921 -0.79601 0
M  V30 4157 N 381.35 -0.985608 -1.22978 0
M  V30 4158 C 382.282 -0.488154 -2.23941 0
M  V30 4159 C 383.295 0.41282 -1.57479 0
M  V30 4160 O 384.484 0.216121 -1.77187 0
M  V30 4161 C 381.584 0.312611 -3.37455 0
M  V30 4162 C 380.757 -0.582741 -4.33501 0
M  V30 4163 C 379.816 0.165064 -5.25941 0
M  V30 4164 O 378.842 -0.447077 -5.67442 0
M  V30 4165 N 380.044 1.44953 -5.62111 0
M  V30 4166 H 382.809 -1.3563 -2.67254 0
M  V30 4167 H 380.37 -0.859477 -1.37203 0
M  V30 4168 H 382.362 0.821357 -3.96277 0
M  V30 4169 H 380.932 1.0818 -2.93285 0
M  V30 4170 H 380.152 -1.27225 -3.73105 0
M  V30 4171 H 381.44 -1.19275 -4.94622 0
M  V30 4172 H 380.838 1.9683 -5.30353 0
M  V30 4173 H 379.395 1.90361 -6.23383 0
M  V30 4174 N 382.828 1.3818 -0.7579 0
M  V30 4175 C 383.761 2.28055 -0.0814093 0
M  V30 4176 C 384.739 1.45603 0.723779 0
M  V30 4177 O 385.923 1.74961 0.701491 0
M  V30 4178 C 383.05 3.2676 0.891394 0
M  V30 4179 C 382.096 4.26153 0.171909 0
M  V30 4180 S 382.929 5.23434 -1.13035 0
M  V30 4181 C 384.085 6.25694 -0.160727 0
M  V30 4182 H 384.318 2.85082 -0.84353 0
M  V30 4183 H 381.851 1.44246 -0.550671 0
M  V30 4184 H 383.809 3.8414 1.44731 0
M  V30 4185 H 382.47 2.68706 1.62652 0
M  V30 4186 H 381.663 4.95738 0.908843 0
M  V30 4187 H 381.265 3.72691 -0.312606 0
M  V30 4188 H 383.557 6.74161 0.671773 0
M  V30 4189 H 384.5 7.03285 -0.824353 0
M  V30 4190 H 384.908 5.64064 0.221892 0
M  V30 4191 N 384.306 0.507319 1.49211 0
M  V30 4192 C 385.552 -0.0350047 2.0277 0
M  V30 4193 C 385.885 -1.3606 1.38569 0
M  V30 4194 O 385.16 -1.87321 0.523542 0
M  V30 4195 C 385.443 -0.180916 3.59645 0
M  V30 4196 C 385.296 1.16825 4.34364 0
M  V30 4197 C 386.615 -0.918558 4.30407 0
M  V30 4198 H 383.734 -0.0112473 0.736914 0
M  V30 4199 H 386.376 0.659956 1.7817 0
M  V30 4200 H 384.526 -0.772826 3.80736 0
M  V30 4201 H 386.198 1.79952 4.24753 0
M  V30 4202 H 384.441 1.75594 3.96673 0
M  V30 4203 H 385.112 1.01939 5.42506 0
M  V30 4204 H 387.588 -0.41649 4.1401 0
M  V30 4205 H 386.464 -0.989505 5.39907 0
M  V30 4206 H 386.725 -1.96373 3.96093 0
M  V30 4207 N 385.784 -1.5574 0.241426 0
M  V30 4208 C 387.061 -1.90704 -0.434881 0
M  V30 4209 C 387.441 -1.16145 -1.76277 0
M  V30 4210 O 386.789 -0.277152 -2.26813 0
M  V30 4211 C 386.999 -3.43657 -0.608343 0
M  V30 4212 C 388.347 -4.14806 -0.906725 0
M  V30 4213 O 389.371 -3.49366 -0.694408 0
M  V30 4214 O 388.23 -5.30548 -1.31075 0
M  V30 4215 H 385.324 -0.793592 -0.23268 0
M  V30 4216 H 387.87 -1.67288 0.285086 0
M  V30 4217 H 386.642 -3.89927 0.327505 0
M  V30 4218 H 386.265 -3.72918 -1.37906 0
M  V30 4219 N 387.262 0.0317525 -1.57568 0
M  V30 4220 C 388.192 1.03274 -2.0942 0
M  V30 4221 C 389.173 1.3788 -0.996143 0
M  V30 4222 O 390.358 1.46811 -1.27122 0
M  V30 4223 C 387.488 2.33448 -2.57137 0
M  V30 4224 C 386.442 2.13091 -3.71182 0
M  V30 4225 C 385.768 3.49001 -4.05095 0
M  V30 4226 C 387.068 1.51928 -4.99715 0
M  V30 4227 H 388.762 0.60112 -2.93303 0
M  V30 4228 H 386.308 0.287705 -1.41097 0
M  V30 4229 H 388.261 3.03802 -2.92032 0
M  V30 4230 H 386.985 2.78665 -1.70333 0
M  V30 4231 H 385.644 1.45171 -3.36632 0
M  V30 4232 H 385.292 3.91862 -3.15362 0
M  V30 4233 H 384.992 3.36207 -4.81911 0
M  V30 4234 H 386.516 4.20721 -4.42522 0
M  V30 4235 H 387.93 2.12196 -5.32584 0
M  V30 4236 H 386.327 1.49716 -5.81124 0
M  V30 4237 H 387.397 0.484811 -4.8247 0
M  V30 4238 N 388.74 1.54641 0.303973 0
M  V30 4239 C 389.673 1.80263 1.3993 0
M  V30 4240 C 390.651 0.653657 1.48883 0
M  V30 4241 O 391.835 0.893284 1.6599 0
M  V30 4242 C 388.962 1.9367 2.77866 0
M  V30 4243 C 388.008 3.16078 2.86351 0
M  V30 4244 S 388.841 4.74219 2.4875 0
M  V30 4245 C 389.997 4.90558 3.88721 0
M  V30 4246 H 390.23 2.72886 1.17986 0
M  V30 4247 H 387.763 1.46014 0.501918 0
M  V30 4248 H 389.721 2.0208 3.57315 0
M  V30 4249 H 388.382 1.01991 2.9708 0
M  V30 4250 H 387.575 3.22252 3.87517 0
M  V30 4251 H 387.177 3.06099 2.14893 0
M  V30 4252 H 389.469 4.74398 4.83687 0
M  V30 4253 H 390.412 5.92651 3.87518 0
M  V30 4254 H 390.82 4.18728 3.78585 0
M  V30 4255 N 390.218 -0.567019 1.47046 0
M  V30 4256 C 391.165 -1.67489 1.58796 0
M  V30 4257 C 392.135 -1.60399 0.43144 0
M  V30 4258 O 393.32 -1.79378 0.650233 0
M  V30 4259 C 390.46 -3.05821 1.59899 0
M  V30 4260 C 389.573 -3.2342 2.86397 0
M  V30 4261 C 388.708 -4.52093 2.789 0
M  V30 4262 C 387.747 -4.6309 4.00267 0
M  V30 4263 N 386.884 -5.83106 3.91064 0
M  V30 4264 H 391.724 -1.56785 2.53422 0
M  V30 4265 H 389.261 -0.763896 1.2571 0
M  V30 4266 H 391.219 -3.8591 1.58522 0
M  V30 4267 H 389.849 -3.15384 0.687929 0
M  V30 4268 H 388.901 -2.3683 2.97684 0
M  V30 4269 H 390.213 -3.27412 3.76301 0
M  V30 4270 H 389.367 -5.4043 2.75718 0
M  V30 4271 H 388.106 -4.50565 1.86662 0
M  V30 4272 H 387.111 -3.73168 4.03765 0
M  V30 4273 H 388.336 -4.66386 4.93621 0
M  V30 4274 H 386.282 -5.82546 3.01623 0
M  V30 4275 H 386.199 -5.88434 4.74638 0
M  V30 4276 H 387.467 -6.73831 3.91882 0
M  V30 4277 N 391.696 -1.35014 -0.812953 0
M  V30 4278 C 393.112 -1.14914 -1.10757 0
M  V30 4279 C 393.312 0.0426818 -2.01455 0
M  V30 4280 O 392.368 0.715212 -2.42159 0
M  V30 4281 C 393.681 -2.44911 -1.74468 0
M  V30 4282 C 395.229 -2.5106 -1.86917 0
M  V30 4283 C 395.704 -3.81085 -2.54044 0
M  V30 4284 N 397.195 -3.82301 -2.61535 0
M  V30 4285 C 397.93 -4.79634 -3.14227 0
M  V30 4286 N 397.426 -5.87353 -3.67407 0
M  V30 4287 N 399.219 -4.67078 -3.12721 0
M  V30 4288 H 391.37 -2.1136 -0.20989 0
M  V30 4289 H 393.633 -0.935128 -0.155692 0
M  V30 4290 H 393.339 -3.32267 -1.15289 0
M  V30 4291 H 393.213 -2.58989 -2.74234 0
M  V30 4292 H 395.6 -1.64137 -2.45241 0
M  V30 4293 H 395.681 -2.40901 -0.860242 0
M  V30 4294 H 395.325 -4.68402 -1.96372 0
M  V30 4295 H 395.255 -3.88529 -3.55461 0
M  V30 4296 H 397.746 -3.04465 -2.23851 0
M  V30 4297 H 398.059 -6.57624 -4.05894 0
M  V30 4298 H 396.404 -5.91054 -3.65623 0
M  V30 4299 H 399.595 -3.82067 -2.70449 0
M  V30 4300 H 399.768 -5.43098 -3.53481 0
M  V30 4301 N 393.175 1.03435 -1.18907 0
M  V30 4302 C 394.415 1.78302 -0.999391 0
M  V30 4303 C 394.779 1.86353 0.462219 0
M  V30 4304 O 395.98 2.57489 0.771543 0
M  V30 4305 C 394.251 3.17362 -1.64365 0
M  V30 4306 S 395.81 4.08488 -1.6026 0
M  V30 4307 H 392.628 0.613861 -0.358742 0
M  V30 4308 H 395.23 1.23979 -1.51161 0
M  V30 4309 H 393.934 3.09116 -2.69955 0
M  V30 4310 H 393.465 3.76762 -1.13199 0
M  V30 4311 H 395.48 4.92274 -0.622932 0
M  V30 4312 N 394.653 0.992116 1.22453 0
M  V30 4313 C 395.899 0.678177 1.91761 0
M  V30 4314 C 396.254 -0.781141 1.75829 0
M  V30 4315 O 395.547 -1.55747 1.11595 0
M  V30 4316 C 395.741 1.01832 3.42586 0
M  V30 4317 C 395.57 2.50916 3.73191 0
M  V30 4318 C 394.34 3.17308 3.93248 0
M  V30 4319 C 396.538 3.49032 3.77732 0
M  V30 4320 N 394.52 4.55876 4.11157 0
M  V30 4321 C 395.891 4.73055 4.00773 0
M  V30 4322 C 397.946 3.43349 3.60577 0
M  V30 4323 C 396.649 5.92089 4.0844 0
M  V30 4324 C 398.675 4.61759 3.69503 0
M  V30 4325 C 398.037 5.84582 3.92993 0
M  V30 4326 H 394.136 0.299425 0.722405 0
M  V30 4327 H 396.72 1.27197 1.47408 0
M  V30 4328 H 394.891 0.453118 3.85748 0
M  V30 4329 H 396.623 0.660454 3.99274 0
M  V30 4330 H 393.378 2.67778 3.9063 0
M  V30 4331 H 393.802 5.27748 4.24042 0
M  V30 4332 H 398.444 2.49408 3.41402 0
M  V30 4333 H 396.162 6.86435 4.26418 0
M  V30 4334 H 399.748 4.58951 3.57569 0
M  V30 4335 H 398.628 6.74676 3.99728 0
M  V30 4336 N 396.131 -1.37776 0.765217 0
M  V30 4337 C 397.408 -1.93975 0.251596 0
M  V30 4338 C 397.788 -1.69949 -1.25222 0
M  V30 4339 O 397.136 -1.04457 -2.03226 0
M  V30 4340 C 397.346 -3.43487 0.617895 0
M  V30 4341 C 398.694 -4.20564 0.584029 0
M  V30 4342 O 399.718 -3.5182 0.556888 0
M  V30 4343 O 398.577 -5.43138 0.605291 0
M  V30 4344 H 395.671 -0.82509 0.0561806 0
M  V30 4345 H 398.217 -1.47101 0.846128 0
M  V30 4346 H 396.989 -3.5453 1.65602 0
M  V30 4347 H 396.612 -3.976 -0.00403411 0
M  V30 4348 N 397.609 -0.515225 -1.4894 0
M  V30 4349 C 398.541 0.292481 -2.27326 0
M  V30 4350 C 399.554 0.917838 -1.3446 0
M  V30 4351 O 400.743 0.798772 -1.5963 0
M  V30 4352 C 397.843 1.42803 -3.07344 0
M  V30 4353 C 397.016 0.907347 -4.27885 0
M  V30 4354 C 396.075 1.92222 -4.89834 0
M  V30 4355 O 395.101 1.48506 -5.49486 0
M  V30 4356 N 396.303 3.25355 -4.80754 0
M  V30 4357 H 399.068 -0.379721 -2.97285 0
M  V30 4358 H 396.629 -0.348638 -1.58102 0
M  V30 4359 H 398.621 2.10481 -3.45658 0
M  V30 4360 H 397.191 2.00414 -2.39902 0
M  V30 4361 H 396.411 0.0550218 -3.94162 0
M  V30 4362 H 397.699 0.538108 -5.05946 0
M  V30 4363 H 397.097 3.6355 -4.33414 0
M  V30 4364 H 395.654 3.88707 -5.23211 0
M  V30 4365 N 399.087 1.5561 -0.249682 0
M  V30 4366 C 400.364 1.90932 0.424761 0
M  V30 4367 C 400.744 1.17078 1.75658 0
M  V30 4368 O 400.092 0.289176 2.26663 0
M  V30 4369 C 400.302 3.43975 0.590109 0
M  V30 4370 C 401.65 4.15281 0.884714 0
M  V30 4371 O 402.674 3.49729 0.67587 0
M  V30 4372 O 401.533 5.31236 1.28259 0
M  V30 4373 H 398.627 0.794815 0.228468 0
M  V30 4374 H 401.173 1.67135 -0.293954 0
M  V30 4375 H 399.945 3.89748 -0.34818 0
M  V30 4376 H 399.568 3.73644 1.35926 0
M  V30 4377 N 400.565 -0.0233959 1.57583 0
M  V30 4378 C 401.976 -0.56927 1.77809 0
M  V30 4379 C 402.327 -1.75284 0.881472 0
M  V30 4380 O 401.452 -2.1626 0.0777805 0
M  V30 4381 C 402.047 -1.03949 3.22459 0
M  V30 4382 C 400.606 -1.53084 3.43864 0
M  V30 4383 C 399.753 -0.471454 2.73263 0
M  V30 4384 H 402.704 0.202825 1.57399 0
M  V30 4385 H 402.725 -1.90661 3.29285 0
M  V30 4386 H 402.237 -0.177865 3.87692 0
M  V30 4387 H 400.338 -2.41414 2.83814 0
M  V30 4388 H 400.451 -1.57443 4.52491 0
M  V30 4389 H 398.815 -0.927788 2.37201 0
M  V30 4390 H 399.598 0.380808 3.41181 0
M  V30 4391 N 402.043 -1.548 -0.295768 0
M  V30 4392 C 402.99 -1.86113 -1.36494 0
M  V30 4393 C 403.96 -0.7105 -1.50137 0
M  V30 4394 O 405.145 -0.959626 -1.64912 0
M  V30 4395 C 402.285 -2.11861 -2.72413 0
M  V30 4396 C 401.398 -3.39471 -2.67177 0
M  V30 4397 C 400.533 -3.55035 -3.95125 0
M  V30 4398 C 399.572 -4.76418 -3.84308 0
M  V30 4399 N 398.709 -4.8876 -5.04042 0
M  V30 4400 H 403.549 -2.77314 -1.09091 0
M  V30 4401 H 401.086 -1.37315 -0.52753 0
M  V30 4402 H 403.044 -2.24786 -3.51464 0
M  V30 4403 H 401.674 -1.2392 -2.98066 0
M  V30 4404 H 400.726 -3.35139 -1.79962 0
M  V30 4405 H 402.038 -4.28646 -2.55076 0
M  V30 4406 H 401.192 -3.67653 -4.82614 0
M  V30 4407 H 399.931 -2.64002 -4.10066 0
M  V30 4408 H 398.936 -4.63827 -2.95202 0
M  V30 4409 H 400.161 -5.68863 -3.70906 0
M  V30 4410 H 398.107 -4.00652 -5.19436 0
M  V30 4411 H 398.024 -5.71945 -4.94384 0
M  V30 4412 H 399.292 -5.0574 -5.93167 0
M  V30 4413 N 403.521 0.559213 -1.47345 0
M  V30 4414 C 404.468 1.66645 -1.59682 0
M  V30 4415 C 405.438 1.60168 -0.43994 0
M  V30 4416 O 406.623 1.79031 -0.659736 0
M  V30 4417 C 403.763 3.04969 -1.61518 0
M  V30 4418 C 402.876 3.21897 -2.88108 0
M  V30 4419 C 402.011 4.50608 -2.81294 0
M  V30 4420 C 401.05 4.60961 -4.02717 0
M  V30 4421 N 400.187 5.81024 -3.94151 0
M  V30 4422 H 405.027 1.55439 -2.54249 0
M  V30 4423 H 402.564 0.757219 -1.26113 0
M  V30 4424 H 404.522 3.85064 -1.60566 0
M  V30 4425 H 403.152 3.15015 -0.704645 0
M  V30 4426 H 402.204 2.35248 -2.98936 0
M  V30 4427 H 403.516 3.25412 -3.78032 0
M  V30 4428 H 402.67 5.3896 -2.7858 0
M  V30 4429 H 401.409 4.49568 -1.89049 0
M  V30 4430 H 400.414 3.71021 -4.05738 0
M  V30 4431 H 401.639 4.63761 -4.96087 0
M  V30 4432 H 399.585 5.80938 -3.04708 0
M  V30 4433 H 399.502 5.85909 -4.77752 0
M  V30 4434 H 400.77 6.71744 -3.9545 0
M  V30 4435 N 404.999 1.35443 0.805782 0
M  V30 4436 C 406.415 1.15499 1.10146 0
M  V30 4437 C 406.615 -0.0319975 2.01475 0
M  V30 4438 O 405.671 -0.70236 2.42535 0
M  V30 4439 C 406.984 2.45833 1.73166 0
M  V30 4440 C 408.532 2.52047 1.85583 0
M  V30 4441 C 409.007 3.82427 2.52019 0
M  V30 4442 N 410.498 3.83682 2.59504 0
M  V30 4443 C 411.233 4.81294 3.11679 0
M  V30 4444 N 410.729 5.89294 3.64287 0
M  V30 4445 N 412.522 4.6873 3.1024 0
M  V30 4446 H 404.673 2.11469 0.198678 0
M  V30 4447 H 406.936 0.93594 0.150731 0
M  V30 4448 H 406.642 3.32874 1.13526 0
M  V30 4449 H 406.516 2.6044 2.72857 0
M  V30 4450 H 408.903 1.65435 2.44367 0
M  V30 4451 H 408.984 2.41354 0.847455 0
M  V30 4452 H 408.628 4.69437 1.93885 0
M  V30 4453 H 408.558 3.90409 3.53395 0
M  V30 4454 H 411.049 3.05648 2.22234 0
M  V30 4455 H 411.362 6.59768 4.02401 0
M  V30 4456 H 409.707 5.92985 3.62483 0
M  V30 4457 H 412.898 3.83496 2.68419 0
M  V30 4458 H 413.071 5.44965 3.50596 0
M  V30 4459 N 406.477 -1.02803 1.19454 0
M  V30 4460 C 407.888 -1.57667 0.999899 0
M  V30 4461 C 408.239 -1.91041 -0.446956 0
M  V30 4462 O 407.364 -1.70978 -1.32648 0
M  V30 4463 C 407.959 -2.86477 1.80877 0
M  V30 4464 C 406.518 -3.37911 1.65811 0
M  V30 4465 C 405.665 -2.11343 1.79526 0
M  V30 4466 H 408.616 -0.853214 1.33813 0
M  V30 4467 H 408.637 -3.57408 1.30536 0
M  V30 4468 H 408.149 -2.62155 2.86175 0
M  V30 4469 H 406.25 -3.67218 0.63102 0
M  V30 4470 H 406.363 -4.10885 2.46395 0
M  V30 4471 H 404.727 -2.23254 1.22596 0
M  V30 4472 H 405.51 -1.89461 2.86285 0
M  V30 4473 N 407.956 -0.998596 -1.21925 0
M  V30 4474 C 409.196 -0.685948 -1.92546 0
M  V30 4475 C 409.56 0.768441 -1.75952 0
M  V30 4476 O 410.761 1.19277 -2.40887 0
M  V30 4477 C 409.032 -1.08767 -3.40448 0
M  V30 4478 S 410.591 -0.894251 -4.29591 0
M  V30 4479 H 407.409 -0.250622 -0.665364 0
M  V30 4480 H 410.011 -1.28207 -1.47591 0
M  V30 4481 H 408.715 -2.14242 -3.50041 0
M  V30 4482 H 408.246 -0.48357 -3.90417 0
M  V30 4483 H 410.261 0.212149 -4.95746 0
M  V30 4484 N 409.434 1.37368 -0.772513 0
M  V30 4485 C 410.681 1.99673 -0.337182 0
M  V30 4486 C 411.009 1.61324 1.0865 0
M  V30 4487 O 410.264 0.851377 1.7621 0
M  V30 4488 C 410.563 3.54817 -0.428876 0
M  V30 4489 C 410.229 4.12936 -1.81092 0
M  V30 4490 C 408.891 4.28523 -2.1891 0
M  V30 4491 C 411.243 4.44801 -2.71664 0
M  V30 4492 C 408.571 4.73277 -3.46735 0
M  V30 4493 C 410.923 4.90981 -3.98899 0
M  V30 4494 C 409.587 5.04773 -4.36761 0
M  V30 4495 H 408.857 0.730656 -0.123384 0
M  V30 4496 H 411.504 1.64124 -0.986686 0
M  V30 4497 H 409.809 3.90618 0.304167 0
M  V30 4498 H 411.506 4.00933 -0.0733334 0
M  V30 4499 H 408.096 4.01233 -1.50699 0
M  V30 4500 H 412.28 4.32344 -2.43706 0
M  V30 4501 H 407.536 4.82142 -3.75964 0
M  V30 4502 H 411.71 5.14603 -4.69208 0
M  V30 4503 H 409.337 5.39211 -5.35868 0
M  V30 4504 N 410.912 0.523116 1.48665 0
M  V30 4505 C 411.842 -0.23231 2.32342 0
M  V30 4506 C 412.823 -0.941637 1.41659 0
M  V30 4507 O 414.008 -0.928751 1.70552 0
M  V30 4508 C 411.138 -1.28387 3.22698 0
M  V30 4509 C 410.092 -0.693098 4.22351 0
M  V30 4510 C 409.418 -1.8468 5.01794 0
M  V30 4511 C 410.718 0.33063 5.21252 0
M  V30 4512 H 412.412 0.466192 2.95748 0
M  V30 4513 H 409.958 0.225643 1.42221 0
M  V30 4514 H 411.911 -1.82024 3.80059 0
M  V30 4515 H 410.635 -2.01186 2.57278 0
M  V30 4516 H 409.294 -0.178299 3.66166 0
M  V30 4517 H 408.942 -2.56301 4.32804 0
M  V30 4518 H 408.642 -1.45747 5.69238 0
M  V30 4519 H 410.166 -2.38709 5.62006 0
M  V30 4520 H 411.58 -0.118407 5.73178 0
M  V30 4521 H 409.977 0.636974 5.9671 0
M  V30 4522 H 411.047 1.23883 4.68808 0
M  V30 4523 N 412.39 -1.55475 0.257931 0
M  V30 4524 C 413.667 -1.91155 -0.414629 0
M  V30 4525 C 414.047 -1.18008 -1.75035 0
M  V30 4526 O 413.395 -0.301193 -2.26506 0
M  V30 4527 C 413.605 -3.44283 -0.571859 0
M  V30 4528 C 414.953 -4.15744 -0.862678 0
M  V30 4529 O 415.977 -3.50083 -0.657314 0
M  V30 4530 O 414.836 -5.31909 -1.2544 0
M  V30 4531 H 411.93 -0.796016 -0.22425 0
M  V30 4532 H 414.476 -1.66976 0.302814 0
M  V30 4533 H 413.248 -3.89558 0.368844 0
M  V30 4534 H 412.871 -3.7436 -1.33943 0
M  V30 4535 N 413.868 0.0150385 -1.57593 0
M  V30 4536 C 415.117 0.702115 -1.89085 0
M  V30 4537 C 415.43 1.75764 -0.858277 0
M  V30 4538 O 416.636 2.49829 -1.0629 0
M  V30 4539 C 415.092 1.29992 -3.35604 0
M  V30 4540 C 414.7 0.280007 -4.47124 0
M  V30 4541 C 416.444 1.96606 -3.76227 0
M  V30 4542 C 414.351 0.886949 -5.84711 0
M  V30 4543 H 413.281 0.265997 -0.705522 0
M  V30 4544 H 415.932 -0.0430408 -1.8345 0
M  V30 4545 H 414.314 2.09525 -3.36029 0
M  V30 4546 H 415.488 -0.489631 -4.58191 0
M  V30 4547 H 413.803 -0.284835 -4.15425 0
M  V30 4548 H 416.4 2.42893 -4.76347 0
M  V30 4549 H 416.743 2.79024 -3.08952 0
M  V30 4550 H 417.276 1.23828 -3.78036 0
M  V30 4551 H 414.015 0.101876 -6.55421 0
M  V30 4552 H 413.535 1.6261 -5.77337 0
M  V30 4553 H 415.214 1.39011 -6.3189 0
M  V30 4554 N 415.346 1.54954 0.287554 0
M  V30 4555 C 416.574 1.78881 1.03967 0
M  V30 4556 C 416.989 0.554894 1.80462 0
M  V30 4557 O 416.346 -0.475676 1.76192 0
M  V30 4558 C 416.397 3.00488 2.0097 0
M  V30 4559 O 416.118 4.19113 1.27577 0
M  V30 4560 C 417.619 3.36907 2.88112 0
M  V30 4561 H 414.839 0.596259 0.307761 0
M  V30 4562 H 417.383 2.01937 0.322749 0
M  V30 4563 H 415.538 2.79601 2.68145 0
M  V30 4564 H 415.952 4.87765 1.92835 0
M  V30 4565 H 417.426 4.25205 3.52001 0
M  V30 4566 H 417.903 2.55659 3.57121 0
M  V30 4567 H 418.509 3.60001 2.26449 0
M  V30 4568 N 416.824 -0.551391 1.4764 0
M  V30 4569 C 418.073 -1.30467 1.53822 0
M  V30 4570 C 418.386 -1.94495 0.207661 0
M  V30 4571 O 419.592 -2.71099 0.147533 0
M  V30 4572 C 418.048 -2.36616 2.71184 0
M  V30 4573 C 417.656 -1.78754 4.10793 0
M  V30 4574 C 419.4 -3.13088 2.86663 0
M  V30 4575 C 417.307 -2.82717 5.19447 0
M  V30 4576 H 416.237 -0.490584 0.572576 0
M  V30 4577 H 418.888 -0.58494 1.73927 0
M  V30 4578 H 417.27 -3.11529 2.4447 0
M  V30 4579 H 418.444 -1.10173 4.47435 0
M  V30 4580 H 416.759 -1.14846 4.00249 0
M  V30 4581 H 419.356 -3.90736 3.65007 0
M  V30 4582 H 419.699 -3.67635 1.95321 0
M  V30 4583 H 420.232 -2.45288 3.13175 0
M  V30 4584 H 416.971 -2.33018 6.12685 0
M  V30 4585 H 416.491 -3.4969 4.87316 0
M  V30 4586 H 418.17 -3.46102 5.46646 0
M  V30 4587 N 418.302 -1.35869 -0.798587 0
M  V30 4588 C 419.212 -1.31578 -1.94228 0
M  V30 4589 C 420.228 -0.21939 -1.72611 0
M  V30 4590 O 421.404 -0.450167 -1.96305 0
M  V30 4591 C 418.469 -1.09528 -3.28944 0
M  V30 4592 C 417.53 -2.28556 -3.63402 0
M  V30 4593 C 416.763 -2.07549 -4.9169 0
M  V30 4594 O 416.986 -1.046 -5.60727 0
M  V30 4595 O 415.92 -2.95106 -5.24591 0
M  V30 4596 H 419.746 -2.27847 -2.00796 0
M  V30 4597 H 417.331 -1.16322 -0.937526 0
M  V30 4598 H 419.213 -0.991127 -4.09579 0
M  V30 4599 H 417.888 -0.16315 -3.23289 0
M  V30 4600 H 416.795 -2.44538 -2.83112 0
M  V30 4601 H 418.128 -3.20244 -3.73771 0
M  V30 4602 N 419.78 1.02168 -1.19998 0
M  V30 4603 C 421.008 1.79296 -1.03249 0
M  V30 4604 C 421.423 1.84103 0.418502 0
M  V30 4605 O 420.78 1.29031 1.29063 0
M  V30 4606 C 420.831 3.24007 -1.60319 0
M  V30 4607 O 420.552 3.19512 -2.99739 0
M  V30 4608 C 422.053 4.17704 -1.48453 0
M  V30 4609 H 419.273 0.564016 -0.363493 0
M  V30 4610 H 421.817 1.28639 -1.58973 0
M  V30 4611 H 419.972 3.7183 -1.08727 0
M  V30 4612 H 420.386 4.10306 -3.26725 0
M  V30 4613 H 421.86 5.17104 -1.93153 0
M  V30 4614 H 422.337 4.37029 -0.436193 0
M  V30 4615 H 422.943 3.7576 -1.99211 0
M  V30 4616 N 421.258 1.00505 1.21394 0
M  V30 4617 C 422.535 0.603277 1.86064 0
M  V30 4618 C 422.915 -0.919095 1.90042 0
M  V30 4619 O 422.263 -1.80607 1.39977 0
M  V30 4620 C 422.473 1.23772 3.26315 0
M  V30 4621 C 423.821 1.34586 4.02705 0
M  V30 4622 O 424.845 1.19304 3.35626 0
M  V30 4623 O 423.704 1.59169 5.22807 0
M  V30 4624 H 420.798 0.206634 0.800769 0
M  V30 4625 H 423.344 1.1017 1.29076 0
M  V30 4626 H 422.116 2.27848 3.18121 0
M  V30 4627 H 421.739 0.725648 3.90922 0
M  V30 4628 N 422.737 -1.36956 0.779787 0
M  V30 4629 C 423.986 -1.98738 0.344405 0
M  V30 4630 C 424.299 -1.62596 -1.08728 0
M  V30 4631 O 425.505 -2.1754 -1.62445 0
M  V30 4632 C 423.961 -3.5544 0.564829 0
M  V30 4633 C 423.569 -4.00514 2.0073 0
M  V30 4634 C 425.313 -4.24059 0.193471 0
M  V30 4635 C 423.22 -5.49957 2.17489 0
M  V30 4636 H 422.15 -0.743561 0.12503 0
M  V30 4637 H 424.801 -1.56381 0.960057 0
M  V30 4638 H 423.183 -3.95817 -0.120397 0
M  V30 4639 H 424.357 -3.71362 2.72814 0
M  V30 4640 H 422.672 -3.44703 2.336 0
M  V30 4641 H 425.269 -5.33874 0.297097 0
M  V30 4642 H 425.612 -4.07378 -0.857263 0
M  V30 4643 H 426.145 -3.89012 0.831556 0
M  V30 4644 H 422.884 -5.71574 3.2091 0
M  V30 4645 H 422.404 -5.80767 1.49899 0
M  V30 4646 H 424.083 -6.16043 1.97738 0
M  V30 4647 N 424.215 -0.530993 -1.48385 0
M  V30 4648 C 425.145 0.219985 -2.32461 0
M  V30 4649 C 426.126 0.934111 -1.42156 0
M  V30 4650 O 427.311 0.919694 -1.71042 0
M  V30 4651 C 424.441 1.26674 -3.23375 0
M  V30 4652 C 423.395 0.67069 -4.22712 0
M  V30 4653 C 422.721 1.82017 -5.02766 0
M  V30 4654 C 424.021 -0.358268 -5.2107 0
M  V30 4655 H 425.715 -0.48187 -2.95497 0
M  V30 4656 H 423.261 -0.233182 -1.42099 0
M  V30 4657 H 425.214 1.80006 -3.81019 0
M  V30 4658 H 423.938 1.99818 -2.58341 0
M  V30 4659 H 422.597 0.158878 -3.66256 0
M  V30 4660 H 422.245 2.54002 -4.34157 0
M  V30 4661 H 421.945 1.42727 -5.70003 0
M  V30 4662 H 423.469 2.35725 -5.63264 0
M  V30 4663 H 424.883 0.0880081 -5.73232 0
M  V30 4664 H 423.28 -0.66861 -5.96364 0
M  V30 4665 H 424.35 -1.26367 -4.68145 0
M  V30 4666 N 425.693 1.55336 -0.266172 0
M  V30 4667 C 426.623 2.25146 0.618981 0
M  V30 4668 C 427.604 1.23845 1.16604 0
M  V30 4669 O 428.789 1.52544 1.20183 0
M  V30 4670 C 425.919 2.96572 1.80728 0
M  V30 4671 C 424.873 4.04726 1.39215 0
M  V30 4672 C 424.199 4.63678 2.66283 0
M  V30 4673 C 425.499 5.19407 0.548942 0
M  V30 4674 H 427.193 2.99377 0.0368116 0
M  V30 4675 H 424.739 1.43991 0.0162651 0
M  V30 4676 H 426.692 3.44116 2.43232 0
M  V30 4677 H 425.416 2.19861 2.41514 0
M  V30 4678 H 424.075 3.57979 0.790351 0
M  V30 4679 H 423.723 3.83646 3.25308 0
M  V30 4680 H 423.423 5.367 2.39222 0
M  V30 4681 H 424.947 5.13967 3.29651 0
M  V30 4682 H 426.361 5.63059 1.07876 0
M  V30 4683 H 424.758 5.98936 0.373593 0
M  V30 4684 H 425.828 4.8295 -0.434394 0
M  V30 4685 N 427.171 -0.0066808 1.57599 0
M  V30 4686 C 428.396 -0.707738 1.94951 0
M  V30 4687 C 428.821 -1.66882 0.867868 0
M  V30 4688 O 428.179 -1.80457 -0.17458 0
M  V30 4689 C 428.227 -1.42162 3.31394 0
M  V30 4690 O 427.331 -2.53578 3.25226 0
M  V30 4691 H 426.672 -0.188752 0.636607 0
M  V30 4692 H 429.202 0.0445193 2.04552 0
M  V30 4693 H 429.212 -1.78655 3.66806 0
M  V30 4694 H 427.887 -0.716903 4.09675 0
M  V30 4695 H 426.464 -2.19463 3.01481 0
M  V30 4696 N 428.649 -1.55105 -0.279332 0
M  V30 4697 C 429.579 -1.90557 -1.34945 0
M  V30 4698 C 430.56 -0.766738 -1.51839 0
M  V30 4699 O 431.745 -1.02434 -1.64988 0
M  V30 4700 C 428.875 -2.17193 -2.71006 0
M  V30 4701 C 427.829 -3.33021 -2.68851 0
M  V30 4702 C 427.155 -3.45123 -4.08405 0
M  V30 4703 C 428.455 -4.69578 -2.28678 0
M  V30 4704 H 430.149 -2.80188 -1.05522 0
M  V30 4705 H 427.695 -1.34811 -0.506173 0
M  V30 4706 H 429.648 -2.40581 -3.45975 0
M  V30 4707 H 428.372 -1.24355 -3.01999 0
M  V30 4708 H 427.031 -3.0959 -1.9634 0
M  V30 4709 H 426.679 -2.49762 -4.3661 0
M  V30 4710 H 426.379 -4.22995 -4.07859 0
M  V30 4711 H 427.903 -3.70796 -4.85121 0
M  V30 4712 H 429.317 -4.92553 -2.93368 0
M  V30 4713 H 427.714 -5.5032 -2.39306 0
M  V30 4714 H 428.784 -4.68828 -1.23807 0
M  V30 4715 N 430.127 0.543554 -1.4793 0
M  V30 4716 C 431.057 1.65888 -1.64327 0
M  V30 4717 C 432.038 1.62818 -0.492383 0
M  V30 4718 O 433.223 1.80226 -0.723338 0
M  V30 4719 C 430.353 3.04506 -1.67013 0
M  V30 4720 C 429.307 3.2243 -2.81466 0
M  V30 4721 C 428.633 4.61972 -2.69233 0
M  V30 4722 C 429.933 3.06496 -4.22915 0
M  V30 4723 H 431.627 1.52421 -2.57698 0
M  V30 4724 H 429.173 0.731849 -1.24016 0
M  V30 4725 H 431.126 3.82391 -1.77074 0
M  V30 4726 H 429.85 3.18964 -0.70212 0
M  V30 4727 H 428.509 2.46957 -2.70938 0
M  V30 4728 H 428.157 4.73247 -1.7043 0
M  V30 4729 H 427.857 4.74911 -3.46025 0
M  V30 4730 H 429.381 5.41974 -2.81242 0
M  V30 4731 H 430.795 3.74186 -4.34348 0
M  V30 4732 H 429.192 3.30938 -5.006 0
M  V30 4733 H 430.262 2.03077 -4.40327 0
M  V30 4734 N 431.605 1.3629 0.791371 0
M  V30 4735 C 432.537 1.26321 1.91248 0
M  V30 4736 C 433.55 0.18313 1.61767 0
M  V30 4737 O 434.739 0.437682 1.73051 0
M  V30 4738 C 431.839 0.925901 3.26007 0
M  V30 4739 C 431.012 2.10746 3.83281 0
M  V30 4740 C 430.071 1.74352 4.96475 0
M  V30 4741 O 429.097 2.46416 5.13096 0
M  V30 4742 N 430.299 0.676058 5.7655 0
M  V30 4743 H 433.064 2.22915 2.00323 0
M  V30 4744 H 430.625 1.29659 0.969546 0
M  V30 4745 H 432.617 0.663636 3.99222 0
M  V30 4746 H 431.187 0.0491581 3.12561 0
M  V30 4747 H 430.407 2.53264 3.02077 0
M  V30 4748 H 431.695 2.8969 4.18279 0
M  V30 4749 H 431.093 0.0776467 5.65647 0
M  V30 4750 H 429.65 0.473612 6.50077 0
M  V30 4751 N 433.083 -1.0153 1.20538 0
M  V30 4752 C 434.308 -1.79283 1.04271 0
M  V30 4753 C 434.733 -1.8372 -0.403544 0
M  V30 4754 O 434.091 -1.27321 -1.2907 0
M  V30 4755 C 434.139 -3.21535 1.63241 0
M  V30 4756 O 433.243 -4.03099 0.870908 0
M  V30 4757 H 432.584 -0.55293 0.367647 0
M  V30 4758 H 435.114 -1.27696 1.59859 0
M  V30 4759 H 435.124 -3.72243 1.6703 0
M  V30 4760 H 433.799 -3.1762 2.68497 0
M  V30 4761 H 432.376 -3.61693 0.907323 0
M  V30 4762 N 434.561 -1.01147 -1.20859 0
M  V30 4763 C 435.977 -0.725422 -1.42161 0
M  V30 4764 C 436.177 0.696919 -1.89064 0
M  V30 4765 O 435.233 1.46539 -2.05627 0
M  V30 4766 C 436.546 -1.74678 -2.44761 0
M  V30 4767 C 438.094 -1.76433 -2.58535 0
M  V30 4768 C 438.569 -2.77481 -3.64374 0
M  V30 4769 N 440.06 -2.76189 -3.71852 0
M  V30 4770 C 440.795 -3.51035 -4.53389 0
M  V30 4771 N 440.291 -4.35541 -5.38773 0
M  V30 4772 N 442.084 -3.39655 -4.47873 0
M  V30 4773 H 434.235 -1.92979 -0.887282 0
M  V30 4774 H 436.498 -0.833327 -0.451962 0
M  V30 4775 H 436.204 -2.76551 -2.17285 0
M  V30 4776 H 436.078 -1.55472 -3.43669 0
M  V30 4777 H 438.465 -0.75248 -2.85345 0
M  V30 4778 H 438.546 -1.99712 -1.5984 0
M  V30 4779 H 438.19 -3.78827 -3.38308 0
M  V30 4780 H 438.12 -2.51466 -4.6268 0
M  V30 4781 H 440.611 -2.14885 -3.10858 0
M  V30 4782 H 440.924 -4.89432 -5.98061 0
M  V30 4783 H 439.269 -4.39621 -5.38292 0
M  V30 4784 H 442.46 -2.73063 -3.80203 0
M  V30 4785 H 442.633 -3.9824 -5.11184 0
M  V30 4786 N 436.039 1.36541 -0.78704 0
M  V30 4787 C 437.285 1.99599 -0.358872 0
M  V30 4788 C 437.618 1.62323 1.06606 0
M  V30 4789 O 436.893 0.876858 1.73613 0
M  V30 4790 C 437.176 3.56327 -0.519944 0
M  V30 4791 C 437.029 4.03464 -1.98839 0
M  V30 4792 C 438.348 4.4005 0.0664737 0
M  V30 4793 H 435.467 0.725107 -0.131869 0
M  V30 4794 H 438.109 1.6199 -0.992936 0
M  V30 4795 H 436.259 3.88495 0.0198321 0
M  V30 4796 H 437.931 3.81793 -2.58905 0
M  V30 4797 H 436.174 3.55092 -2.49183 0
M  V30 4798 H 436.845 5.12439 -2.05207 0
M  V30 4799 H 439.321 4.14228 -0.394267 0
M  V30 4800 H 438.197 5.48847 -0.0762682 0
M  V30 4801 H 438.458 4.26655 1.15835 0
M  V30 4802 N 437.518 0.538854 1.48102 0
M  V30 4803 C 438.481 -0.208395 2.28251 0
M  V30 4804 C 439.481 -0.859656 1.35892 0
M  V30 4805 O 440.671 -0.71834 1.58699 0
M  V30 4806 C 437.803 -1.30252 3.15035 0
M  V30 4807 H 438.996 0.495407 2.9578 0
M  V30 4808 H 436.549 0.295112 1.53489 0
M  V30 4809 H 437.284 -2.0393 2.52157 0
M  V30 4810 H 437.069 -0.840551 3.82985 0
M  V30 4811 H 438.559 -1.82787 3.75471 0
M  V30 4812 N 438.996 -1.55193 0.274407 0
M  V30 4813 C 440.242 -1.99877 -0.343086 0
M  V30 4814 C 440.575 -1.16256 -1.55558 0
M  V30 4815 O 439.85 -0.232462 -1.93106 0
M  V30 4816 C 440.133 -3.52706 -0.725965 0
M  V30 4817 C 439.986 -4.47081 0.493818 0
M  V30 4818 C 441.305 -4.11422 -1.56268 0
M  V30 4819 H 438.424 -0.726625 -0.123229 0
M  V30 4820 H 441.066 -1.86136 0.38121 0
M  V30 4821 H 439.216 -3.64546 -1.34307 0
M  V30 4822 H 440.888 -4.47186 1.13237 0
M  V30 4823 H 439.131 -4.1877 1.13201 0
M  V30 4824 H 439.802 -5.51699 0.18217 0
M  V30 4825 H 442.278 -4.02855 -1.04151 0
M  V30 4826 H 441.154 -5.18568 -1.79939 0
M  V30 4827 H 441.415 -3.61607 -2.54348 0
M  V30 4828 N 440.474 -0.00167713 -1.576 0
M  V30 4829 C 441.885 0.54091 -1.78693 0
M  V30 4830 C 442.236 1.7386 -0.909247 0
M  V30 4831 O 441.361 2.16109 -0.112176 0
M  V30 4832 C 441.956 0.98806 -3.24072 0
M  V30 4833 C 440.515 1.47594 -3.46256 0
M  V30 4834 C 439.662 0.42792 -2.73978 0
M  V30 4835 H 442.613 -0.22784 -1.57056 0
M  V30 4836 H 442.634 1.85398 -3.32277 0
M  V30 4837 H 442.146 0.116164 -3.87926 0
M  V30 4838 H 440.247 2.36868 -2.87618 0
M  V30 4839 H 440.36 1.50225 -4.54939 0
M  V30 4840 H 438.724 0.889934 -2.38647 0
M  V30 4841 H 439.507 -0.435038 -3.40532 0
M  V30 4842 N 441.952 1.55251 0.271103 0
M  V30 4843 C 442.862 1.9136 1.35714 0
M  V30 4844 C 443.878 0.811075 1.5394 0
M  V30 4845 O 445.054 1.11031 1.6803 0
M  V30 4846 C 442.119 2.1798 2.69603 0
M  V30 4847 C 441.18 3.4153 2.60107 0
M  V30 4848 C 440.413 3.66871 3.8761 0
M  V30 4849 O 440.636 2.94689 4.8838 0
M  V30 4850 O 439.57 4.60405 3.87699 0
M  V30 4851 H 443.396 2.83815 1.08088 0
M  V30 4852 H 440.981 1.41821 0.469792 0
M  V30 4853 H 442.863 2.36518 3.48765 0
M  V30 4854 H 441.538 1.28708 2.97012 0
M  V30 4855 H 440.445 3.28325 1.79314 0
M  V30 4856 H 441.778 4.31027 2.37647 0
M  V30 4857 N 443.43 -0.535701 1.48216 0
M  V30 4858 C 444.655 -1.32149 1.59848 0
M  V30 4859 C 445.08 -1.86338 0.256842 0
M  V30 4860 O 444.438 -1.64107 -0.770632 0
M  V30 4861 C 444.486 -2.45224 2.64381 0
M  V30 4862 O 443.59 -3.48093 2.21144 0
M  V30 4863 H 442.931 -0.391634 0.536208 0
M  V30 4864 H 445.461 -0.645202 1.94161 0
M  V30 4865 H 445.471 -2.91491 2.85476 0
M  V30 4866 H 444.146 -2.05143 3.61786 0
M  V30 4867 H 442.723 -3.07984 2.10239 0
M  V30 4868 N 444.908 -1.36708 -0.784132 0
M  V30 4869 C 445.855 -1.31466 -1.89698 0
M  V30 4870 C 446.825 -0.18239 -1.65096 0
M  V30 4871 O 448.01 -0.369762 -1.87183 0
M  V30 4872 C 445.15 -1.1151 -3.26588 0
M  V30 4873 C 444.263 -2.33859 -3.63227 0
M  V30 4874 C 443.398 -2.06873 -4.89262 0
M  V30 4875 C 442.437 -3.25154 -5.18595 0
M  V30 4876 N 441.574 -2.978 -6.35814 0
M  V30 4877 H 446.414 -2.26619 -1.93515 0
M  V30 4878 H 443.951 -1.12625 -0.946256 0
M  V30 4879 H 445.909 -0.979653 -4.05535 0
M  V30 4880 H 444.539 -0.200103 -3.22179 0
M  V30 4881 H 443.591 -2.58188 -2.79362 0
M  V30 4882 H 444.903 -3.22109 -3.8085 0
M  V30 4883 H 444.057 -1.90289 -5.76086 0
M  V30 4884 H 442.796 -1.15942 -4.73718 0
M  V30 4885 H 441.801 -3.42292 -4.30251 0
M  V30 4886 H 443.026 -4.1692 -5.36055 0
M  V30 4887 H 440.972 -2.09485 -6.21653 0
M  V30 4888 H 440.889 -3.7959 -6.53794 0
M  V30 4889 H 442.157 -2.84805 -7.25607 0
M  V30 4890 N 446.386 1.0089 -1.21074 0
M  V30 4891 C 447.349 2.0775 -0.968129 0
M  V30 4892 C 448.349 1.6069 0.0593445 0
M  V30 4893 O 449.539 1.73293 -0.177525 0
M  V30 4894 C 446.671 3.37794 -0.459108 0
M  V30 4895 H 447.864 2.30707 -1.9161 0
M  V30 4896 H 445.417 1.17807 -1.02719 0
M  V30 4897 H 446.152 3.20516 0.49397 0
M  V30 4898 H 445.937 3.7328 -1.20019 0
M  V30 4899 H 447.427 4.16454 -0.309099 0
M  V30 4900 N 447.864 1.01787 1.20321 0
M  V30 4901 C 448.794 0.609625 2.25401 0
M  V30 4902 C 449.775 -0.375951 1.65893 0
M  V30 4903 O 450.96 -0.261101 1.92437 0
M  V30 4904 C 448.09 -0.0515995 3.47262 0
M  V30 4905 C 447.044 0.855095 4.19371 0
M  V30 4906 C 446.37 0.0595757 5.34667 0
M  V30 4907 C 447.67 2.16374 4.75373 0
M  V30 4908 H 449.364 1.48803 2.59804 0
M  V30 4909 H 446.91 0.716934 1.24884 0
M  V30 4910 H 448.863 -0.348764 4.19954 0
M  V30 4911 H 447.587 -0.964726 3.12027 0
M  V30 4912 H 446.246 1.13628 3.48546 0
M  V30 4913 H 445.894 -0.85524 4.95676 0
M  V30 4914 H 445.594 0.663406 5.83843 0
M  V30 4915 H 447.118 -0.231105 6.10162 0
M  V30 4916 H 448.532 1.92885 5.39878 0
M  V30 4917 H 446.929 2.71853 5.34991 0
M  V30 4918 H 447.999 2.82589 3.94045 0
M  V30 4919 N 449.342 -1.36122 0.79427 0
M  V30 4920 C 450.305 -2.28309 0.201889 0
M  V30 4921 C 451.305 -1.49041 -0.603603 0
M  V30 4922 O 452.495 -1.68964 -0.423888 0
M  V30 4923 C 449.627 -3.3321 -0.719978 0
M  V30 4924 H 450.82 -2.82208 1.01481 0
M  V30 4925 H 448.373 -1.45768 0.564037 0
M  V30 4926 H 449.108 -2.84475 -1.55706 0
M  V30 4927 H 448.893 -3.91835 -0.144266 0
M  V30 4928 H 450.383 -4.02044 -1.12916 0
M  V30 4929 N 450.82 -0.546701 -1.47814 0
M  V30 4930 C 452.236 -0.205717 -1.58269 0
M  V30 4931 C 452.436 1.29153 -1.54667 0
M  V30 4932 O 451.492 2.07098 -1.44453 0
M  V30 4933 C 452.805 -0.823065 -2.89216 0
M  V30 4934 C 454.353 -0.793328 -3.02779 0
M  V30 4935 C 454.828 -1.38955 -4.36412 0
M  V30 4936 N 456.319 -1.35227 -4.43021 0
M  V30 4937 C 457.054 -1.78333 -5.44963 0
M  V30 4938 N 456.55 -2.29246 -6.53772 0
M  V30 4939 N 458.343 -1.69467 -5.35945 0
M  V30 4940 H 450.494 -1.5196 -1.48398 0
M  V30 4941 H 452.757 -0.633078 -0.705632 0
M  V30 4942 H 452.463 -1.8749 -2.97558 0
M  V30 4943 H 452.337 -0.309915 -3.75925 0
M  V30 4944 H 454.724 0.249784 -2.94041 0
M  V30 4945 H 454.805 -1.34412 -2.17639 0
M  V30 4946 H 454.449 -2.43168 -4.45906 0
M  V30 4947 H 454.379 -0.814291 -5.20266 0
M  V30 4948 H 456.87 -0.979739 -3.64979 0
M  V30 4949 H 457.183 -2.60089 -7.27718 0
M  V30 4950 H 455.528 -2.3325 -6.5469 0
M  V30 4951 H 458.719 -1.29477 -4.49837 0
M  V30 4952 H 458.892 -2.03381 -6.15256 0
M  V30 4953 N 452.299 1.55045 -0.282633 0
M  V30 4954 C 453.246 2.22822 0.601566 0
M  V30 4955 C 454.216 1.20431 1.14392 0
M  V30 4956 O 455.401 1.48996 1.19184 0
M  V30 4957 C 452.541 2.95873 1.77632 0
M  V30 4958 C 451.654 4.12999 1.26711 0
M  V30 4959 C 450.789 4.73676 2.40426 0
M  V30 4960 C 449.828 5.82981 1.86545 0
M  V30 4961 N 448.965 6.3769 2.93762 0
M  V30 4962 H 453.805 2.97995 0.0169528 0
M  V30 4963 H 451.342 1.471 -0.00339964 0
M  V30 4964 H 453.3 3.36447 2.46697 0
M  V30 4965 H 451.93 2.2311 2.33285 0
M  V30 4966 H 450.982 3.77494 0.469314 0
M  V30 4967 H 452.294 4.91803 0.832518 0
M  V30 4968 H 451.448 5.17008 3.17471 0
M  V30 4969 H 450.187 3.94164 2.87203 0
M  V30 4970 H 449.192 5.39092 1.07983 0
M  V30 4971 H 450.417 6.64366 1.40694 0
M  V30 4972 H 448.363 5.61069 3.39908 0
M  V30 4973 H 448.28 7.11788 2.54744 0
M  V30 4974 H 449.548 6.8568 3.7076 0
M  V30 4975 N 453.777 0.010035 1.57597 0
M  V30 4976 C 455.023 -0.673697 1.91283 0
M  V30 4977 C 455.356 -1.72863 0.884979 0
M  V30 4978 O 454.631 -1.94268 -0.0949487 0
M  V30 4979 C 454.914 -1.30766 3.35518 0
M  V30 4980 C 454.767 -0.263578 4.49027 0
M  V30 4981 C 456.086 -2.23105 3.79358 0
M  V30 4982 H 453.205 -0.243439 0.695634 0
M  V30 4983 H 455.847 0.0633864 1.89894 0
M  V30 4984 H 453.997 -1.93588 3.36832 0
M  V30 4985 H 455.669 0.365738 4.59848 0
M  V30 4986 H 453.912 0.413077 4.31829 0
M  V30 4987 H 454.583 -0.746398 5.4693 0
M  V30 4988 H 457.059 -1.70289 3.79659 0
M  V30 4989 H 455.935 -2.64424 4.81011 0
M  V30 4990 H 456.196 -3.11433 3.13787 0
M  V30 4991 N 455.255 -1.55392 -0.262866 0
M  V30 4992 C 456.48 -1.80847 -1.01533 0
M  V30 4993 C 456.905 -0.584946 -1.78774 0
M  V30 4994 O 456.263 0.465701 -1.75217 0
M  V30 4995 C 456.311 -3.03866 -1.94159 0
M  V30 4996 O 455.415 -2.79662 -3.03089 0
M  V30 4997 H 454.756 -0.597441 -0.289759 0
M  V30 4998 H 457.286 -2.02553 -0.288698 0
M  V30 4999 H 457.296 -3.32872 -2.35924 0
M  V30 5000 H 455.971 -3.92564 -1.37354 0
M  V30 5001 H 454.548 -2.61781 -2.65566 0
M  V30 5002 N 456.733 0.527833 -1.48498 0
M  V30 5003 C 457.973 1.29401 -1.58224 0
M  V30 5004 C 458.337 1.90348 -0.251327 0
M  V30 5005 O 459.538 2.67868 -0.223588 0
M  V30 5006 C 457.809 2.35266 -2.69044 0
M  V30 5007 S 459.368 3.2158 -2.98549 0
M  V30 5008 H 456.186 0.440138 -0.558391 0
M  V30 5009 H 458.788 0.601079 -1.8603 0
M  V30 5010 H 457.492 1.88975 -3.64303 0
M  V30 5011 H 457.023 3.09263 -2.43146 0
M  V30 5012 H 459.038 4.35391 -2.38011 0
M  V30 5013 N 458.211 1.37122 0.776871 0
M  V30 5014 C 459.158 1.3247 1.88998 0
M  V30 5015 C 460.128 0.191143 1.64997 0
M  V30 5016 O 461.313 0.379683 1.86984 0
M  V30 5017 C 458.453 1.13241 3.25992 0
M  V30 5018 C 457.566 2.35782 3.61982 0
M  V30 5019 C 456.701 2.09465 4.88158 0
M  V30 5020 C 455.74 3.279 5.16864 0
M  V30 5021 N 454.877 3.01167 6.34226 0
M  V30 5022 H 459.717 2.27642 1.9231 0
M  V30 5023 H 457.254 1.13125 0.94027 0
M  V30 5024 H 459.212 1.00115 4.0501 0
M  V30 5025 H 457.842 0.217186 3.22069 0
M  V30 5026 H 456.894 2.59666 2.77989 0
M  V30 5027 H 458.206 3.24125 3.79137 0
M  V30 5028 H 457.36 1.93341 5.75069 0
M  V30 5029 H 456.099 1.18452 4.73097 0
M  V30 5030 H 455.104 3.44569 4.2843 0
M  V30 5031 H 456.329 4.19757 5.33836 0
M  V30 5032 H 454.275 2.12779 6.20533 0
M  V30 5033 H 454.192 3.83052 6.51772 0
M  V30 5034 H 455.46 2.88649 7.24087 0
M  V30 5035 N 459.689 -1.00246 1.21608 0
M  V30 5036 C 460.619 -2.10921 1.00172 0
M  V30 5037 C 461.6 -1.69938 -0.0741587 0
M  V30 5038 O 462.785 -1.94009 0.0861753 0
M  V30 5039 C 459.915 -3.42618 0.568355 0
M  V30 5040 C 458.869 -3.97407 1.58909 0
M  V30 5041 C 458.195 -5.25038 1.01187 0
M  V30 5042 C 459.495 -4.2918 2.97661 0
M  V30 5043 H 461.189 -2.29112 1.92739 0
M  V30 5044 H 458.735 -1.10101 0.928102 0
M  V30 5045 H 460.688 -4.19444 0.405555 0
M  V30 5046 H 459.412 -3.24227 -0.392961 0
M  V30 5047 H 458.071 -3.22703 1.73949 0
M  V30 5048 H 457.719 -5.02982 0.0421965 0
M  V30 5049 H 457.419 -5.62661 1.6937 0
M  V30 5050 H 458.943 -6.04507 0.860448 0
M  V30 5051 H 460.357 -4.96839 2.86049 0
M  V30 5052 H 458.754 -4.77952 3.6288 0
M  V30 5053 H 459.824 -3.3735 3.48315 0
M  V30 5054 N 461.167 -1.02423 -1.1978 0
M  V30 5055 C 462.392 -0.7373 -1.93852 0
M  V30 5056 C 462.817 0.696923 -1.74713 0
M  V30 5057 O 462.175 1.48056 -1.04638 0
M  V30 5058 C 462.223 -1.08783 -3.438 0
M  V30 5059 O 461.327 -0.20383 -4.11896 0
M  V30 5060 H 460.668 -0.27284 -0.605355 0
M  V30 5061 H 463.198 -1.36966 -1.51992 0
M  V30 5062 H 463.208 -1.04276 -3.9445 0
M  V30 5063 H 461.883 -2.13274 -3.57053 0
M  V30 5064 H 460.46 -0.307091 -3.71633 0
M  V30 5065 N 462.645 1.35699 -0.801477 0
M  V30 5066 C 463.575 2.32436 -0.222658 0
M  V30 5067 C 464.556 1.5723 0.649057 0
M  V30 5068 O 465.741 1.85324 0.580387 0
M  V30 5069 C 462.871 3.41469 0.633719 0
M  V30 5070 C 461.825 4.27774 -0.139083 0
M  V30 5071 C 461.151 5.28082 0.838666 0
M  V30 5072 C 462.451 5.04946 -1.33517 0
M  V30 5073 H 464.145 2.81094 -1.03086 0
M  V30 5074 H 461.691 1.35146 -0.497155 0
M  V30 5075 H 463.644 4.08143 1.04868 0
M  V30 5076 H 462.368 2.91408 1.47475 0
M  V30 5077 H 461.027 3.62673 -0.535156 0
M  V30 5078 H 460.675 4.7429 1.67506 0
M  V30 5079 H 460.375 5.86695 0.32594 0
M  V30 5080 H 461.899 5.97628 1.25194 0
M  V30 5081 H 463.313 5.64593 -0.995349 0
M  V30 5082 H 461.71 5.7303 -1.78202 0
M  V30 5083 H 462.78 4.35886 -2.12442 0
M  V30 5084 N 464.123 0.554532 1.47522 0
M  V30 5085 C 465.539 0.214107 1.58157 0
M  V30 5086 C 465.739 -1.28331 1.55349 0
M  V30 5087 O 464.795 -2.06329 1.45549 0
M  V30 5088 C 466.108 0.838391 2.88776 0
M  V30 5089 C 467.656 0.809374 3.02354 0
M  V30 5090 C 468.131 1.41268 4.35669 0
M  V30 5091 N 469.622 1.37574 4.42298 0
M  V30 5092 C 470.357 1.8122 5.4401 0
M  V30 5093 N 469.853 2.3271 6.52547 0
M  V30 5094 N 471.646 1.72307 5.35039 0
M  V30 5095 H 463.797 1.52744 1.4759 0
M  V30 5096 H 466.06 0.636812 0.702264 0
M  V30 5097 H 465.766 1.89065 2.96559 0
M  V30 5098 H 465.64 0.329847 3.75755 0
M  V30 5099 H 468.027 -0.234187 2.94169 0
M  V30 5100 H 468.108 1.35565 2.16924 0
M  V30 5101 H 467.752 2.45529 4.4461 0
M  V30 5102 H 467.682 0.841871 5.19827 0
M  V30 5103 H 470.173 0.999081 3.64454 0
M  V30 5104 H 470.486 2.63944 7.26329 0
M  V30 5105 H 468.831 2.36719 6.53444 0
M  V30 5106 H 472.022 1.3186 4.49144 0
M  V30 5107 H 472.195 2.06641 6.14169 0
M  V30 5108 N 465.601 -1.54893 0.290851 0
M  V30 5109 C 466.533 -2.20564 -0.623236 0
M  V30 5110 C 467.546 -1.19519 -1.1054 0
M  V30 5111 O 468.735 -1.46165 -1.02459 0
M  V30 5112 C 465.835 -2.83033 -1.86401 0
M  V30 5113 C 465.008 -4.09916 -1.52604 0
M  V30 5114 C 464.067 -4.56284 -2.62091 0
M  V30 5115 O 463.093 -5.2171 -2.27612 0
M  V30 5116 N 464.295 -4.27746 -3.92446 0
M  V30 5117 H 467.06 -2.99638 -0.0610915 0
M  V30 5118 H 464.621 -1.61508 0.112615 0
M  V30 5119 H 466.613 -3.1099 -2.58973 0
M  V30 5120 H 465.183 -2.0786 -2.33481 0
M  V30 5121 H 464.403 -3.89078 -0.633424 0
M  V30 5122 H 465.691 -4.92554 -1.27547 0
M  V30 5123 H 465.089 -3.7531 -4.23272 0
M  V30 5124 H 463.646 -4.60437 -4.61347 0
M  V30 5125 N 467.08 -0.0183926 -1.57589 0
M  V30 5126 C 468.491 0.521927 -1.79256 0
M  V30 5127 C 468.842 1.72885 -0.927636 0
M  V30 5128 O 467.967 2.15978 -0.135091 0
M  V30 5129 C 468.562 0.953632 -3.25102 0
M  V30 5130 C 467.121 1.43913 -3.47801 0
M  V30 5131 C 466.268 0.398837 -2.74417 0
M  V30 5132 H 469.219 -0.244485 -1.56805 0
M  V30 5133 H 469.24 1.81863 -3.34224 0
M  V30 5134 H 468.752 0.0750123 -3.88028 0
M  V30 5135 H 466.853 2.33804 -2.90115 0
M  V30 5136 H 466.966 1.45391 -4.56507 0
M  V30 5137 H 465.33 0.864572 -2.39577 0
M  V30 5138 H 466.113 -0.471132 -3.40052 0
M  V30 5139 N 468.558 1.5553 0.254621 0
M  V30 5140 C 469.806 1.7665 0.981793 0
M  V30 5141 C 470.127 0.580963 1.86145 0
M  V30 5142 O 469.397 -0.403537 1.91699 0
M  V30 5143 H 467.977 0.651475 0.365498 0
M  V30 5144 H 470.639 1.92958 0.274426 0
M  V30 5145 H 469.735 2.67486 1.60802 0
M  V30 5146 N 470.036 -0.519951 1.48776 0
M  V30 5147 C 470.946 -1.65025 1.66745 0
M  V30 5148 C 471.962 -1.6508 0.549954 0
M  V30 5149 O 473.138 -1.83848 0.822295 0
M  V30 5150 C 470.203 -3.0146 1.71238 0
M  V30 5151 C 469.264 -3.12182 2.94688 0
M  V30 5152 C 468.497 -4.42109 2.98958 0
M  V30 5153 O 468.72 -5.29799 2.1135 0
M  V30 5154 O 467.654 -4.57406 3.91233 0
M  V30 5155 H 471.48 -1.52801 2.62461 0
M  V30 5156 H 469.065 -0.694157 1.32294 0
M  V30 5157 H 470.947 -3.82584 1.76657 0
M  V30 5158 H 469.622 -3.13988 0.786975 0
M  V30 5159 H 468.529 -2.30316 2.94797 0
M  V30 5160 H 469.862 -3.04574 3.86646 0
M  V30 5161 N 471.514 -1.37532 -0.769588 0
M  V30 5162 C 472.76 -1.33057 -1.53048 0
M  V30 5163 C 473.093 0.0841865 -1.94017 0
M  V30 5164 O 472.368 1.04198 -1.64235 0
M  V30 5165 C 472.651 -2.27166 -2.79406 0
M  V30 5166 C 472.504 -3.77429 -2.44677 0
M  V30 5167 C 473.823 -2.19683 -3.81349 0
M  V30 5168 H 470.942 -0.484655 -0.555228 0
M  V30 5169 H 473.584 -1.68251 -0.882702 0
M  V30 5170 H 471.734 -1.97283 -3.34682 0
M  V30 5171 H 473.406 -4.17918 -1.953 0
M  V30 5172 H 471.649 -3.95892 -1.77346 0
M  V30 5173 H 472.32 -4.38716 -3.35011 0
M  V30 5174 H 474.796 -2.46029 -3.35573 0
M  V30 5175 H 473.672 -2.87668 -4.67481 0
M  V30 5176 H 473.933 -1.19045 -4.25771 0
M  V30 5177 N 472.992 0.995999 -1.22138 0
M  V30 5178 C 473.94 2.10673 -0.985876 0
M  V30 5179 C 474.934 1.69255 0.0699553 0
M  V30 5180 O 476.14 1.79812 -0.0822176 0
M  V30 5181 H 472.515 0.688865 -0.30161 0
M  V30 5182 H 474.486 2.27711 -1.92848 0
M  V30 5183 C 473.235 3.42881 -0.576909 0
M  V30 5184 H 472.558 3.75191 -1.38101 0
M  V30 5185 H 473.998 4.21589 -0.451518 0
M  V30 5186 C 472.457 3.29265 0.713196 0
M  V30 5187 O 472.987 3.60777 1.76643 0
M  V30 5188 N 471.193 2.82456 0.683162 0
M  V30 5189 H 470.74 2.5701 -0.174242 0
M  V30 5190 H 470.698 2.73727 1.54663 0
M  V30 5191 N 474.47 1.03057 1.19235 0
M  V30 5192 C 475.38 0.622922 2.26179 0
M  V30 5193 C 476.396 -0.346113 1.70523 0
M  V30 5194 O 477.572 -0.203572 2.00369 0
M  V30 5195 C 474.637 -0.0182063 3.46695 0
M  V30 5196 C 473.698 0.998546 4.17526 0
M  V30 5197 C 472.931 0.387917 5.32288 0
M  V30 5198 O 473.154 -0.808668 5.64639 0
M  V30 5199 O 472.088 1.1116 5.91546 0
M  V30 5200 H 475.914 1.51363 2.63292 0
M  V30 5201 H 473.499 0.800856 1.26122 0
M  V30 5202 H 475.381 -0.375606 4.19723 0
M  V30 5203 H 474.056 -0.882895 3.11427 0
M  V30 5204 H 472.963 1.40756 3.4661 0
M  V30 5205 H 474.296 1.83366 4.56769 0
M  V30 5206 N 475.948 -1.35272 0.808662 0
M  V30 5207 C 477.225 -1.93077 0.313181 0
M  V30 5208 C 477.605 -1.73847 -1.19752 0
M  V30 5209 O 476.953 -1.1087 -1.998 0
M  V30 5210 C 477.163 -3.41347 0.726859 0
M  V30 5211 C 478.511 -4.18493 0.717532 0
M  V30 5212 O 479.535 -3.4987 0.668535 0
M  V30 5213 O 478.394 -5.40937 0.777779 0
M  V30 5214 H 475.488 -0.822885 0.0824018 0
M  V30 5215 H 478.034 -1.44335 0.892499 0
M  V30 5216 H 476.806 -3.49082 1.76797 0
M  V30 5217 H 476.429 -3.97411 0.122461 0
M  V30 5218 N 477.426 -0.562348 -1.47226 0
M  V30 5219 C 478.675 -0.038041 -2.01664 0
M  V30 5220 C 478.988 1.32199 -1.44162 0
M  V30 5221 O 480.194 1.9365 -1.90294 0
M  V30 5222 C 478.65 -0.0174958 -3.59896 0
M  V30 5223 C 478.258 -1.3746 -4.2639 0
M  V30 5224 C 480.002 0.453934 -4.22066 0
M  V30 5225 C 477.909 -1.31289 -5.76643 0
M  V30 5226 H 476.839 -0.0104511 -0.753928 0
M  V30 5227 H 479.49 -0.710966 -1.69167 0
M  V30 5228 H 477.872 0.721182 -3.89378 0
M  V30 5229 H 479.046 -2.1314 -4.08544 0
M  V30 5230 H 477.361 -1.78438 -3.7623 0
M  V30 5231 H 479.958 0.518584 -5.32179 0
M  V30 5232 H 480.301 1.46706 -3.89594 0
M  V30 5233 H 480.834 -0.230044 -3.97134 0
M  V30 5234 H 477.573 -2.30217 -6.13743 0
M  V30 5235 H 477.093 -0.597973 -5.96812 0
M  V30 5236 H 478.772 -1.01713 -6.38955 0
M  V30 5237 N 478.904 1.54736 -0.299062 0
M  V30 5238 C 480.129 2.04975 0.316254 0
M  V30 5239 C 480.554 1.17501 1.46885 0
M  V30 5240 O 479.912 0.178678 1.80417 0
M  V30 5241 C 479.96 3.52672 0.751997 0
M  V30 5242 O 479.064 3.68226 1.85697 0
M  V30 5243 H 478.405 0.661126 0.0617175 0
M  V30 5244 H 480.935 1.99805 -0.440341 0
M  V30 5245 H 480.945 3.94488 1.04133 0
M  V30 5246 H 479.62 4.158 -0.0911482 0
M  V30 5247 H 478.197 3.38316 1.56834 0
M  V30 5248 N 480.382 0.0267497 1.57577 0
M  V30 5249 C 481.314 -0.984594 2.06974 0
M  V30 5250 C 482.327 -1.29032 0.992705 0
M  V30 5251 O 483.516 -1.25539 1.26895 0
M  V30 5252 C 480.616 -2.31262 2.47732 0
M  V30 5253 C 479.789 -2.1924 3.78487 0
M  V30 5254 C 478.848 -3.34956 4.05821 0
M  V30 5255 O 477.874 -3.11948 4.76106 0
M  V30 5256 N 479.076 -4.58672 3.55809 0
M  V30 5257 H 481.841 -0.563143 2.94362 0
M  V30 5258 H 479.402 -0.160061 1.61107 0
M  V30 5259 H 481.394 -3.07496 2.63112 0
M  V30 5260 H 479.964 -2.65056 1.65723 0
M  V30 5261 H 479.184 -1.27747 3.72927 0
M  V30 5262 H 480.472 -2.08409 4.64158 0
M  V30 5263 H 479.87 -4.8026 2.98942 0
M  V30 5264 H 478.427 -5.32083 3.76472 0
M  V30 5265 N 481.861 -1.55662 -0.24637 0
M  V30 5266 C 482.771 -1.93495 -1.32653 0
M  V30 5267 C 483.787 -0.835462 -1.5263 0
M  V30 5268 O 484.963 -1.1369 -1.66242 0
M  V30 5269 C 482.028 -2.22242 -2.66101 0
M  V30 5270 C 481.089 -3.45625 -2.54641 0
M  V30 5271 C 480.322 -3.72991 -3.81724 0
M  V30 5272 O 480.545 -3.02421 -4.8363 0
M  V30 5273 O 479.479 -4.66515 -3.80325 0
M  V30 5274 H 483.305 -2.85498 -1.03559 0
M  V30 5275 H 480.89 -1.42551 -0.44717 0
M  V30 5276 H 482.772 -2.42037 -3.44958 0
M  V30 5277 H 481.447 -1.33417 -2.94926 0
M  V30 5278 H 480.354 -3.31136 -1.74067 0
M  V30 5279 H 481.687 -4.34754 -2.3076 0
M  V30 5280 N 483.339 0.512053 -1.4905 0
M  V30 5281 C 484.269 1.62365 -1.67809 0
M  V30 5282 C 485.25 1.61737 -0.526809 0
M  V30 5283 O 486.435 1.78651 -0.761404 0
M  V30 5284 C 483.565 3.00895 -1.73435 0
M  V30 5285 C 482.519 3.16387 -2.88242 0
M  V30 5286 C 481.845 4.56157 -2.78971 0
M  V30 5287 C 483.145 2.97457 -4.29321 0
M  V30 5288 H 484.839 1.46921 -2.60873 0
M  V30 5289 H 482.385 0.705379 -1.2554 0
M  V30 5290 H 484.338 3.78549 -1.85145 0
M  V30 5291 H 483.062 3.17403 -0.769619 0
M  V30 5292 H 481.721 2.41155 -2.76116 0
M  V30 5293 H 481.369 4.69525 -1.8043 0
M  V30 5294 H 481.069 4.67465 -3.5602 0
M  V30 5295 H 482.593 5.35886 -2.92675 0
M  V30 5296 H 484.007 3.64888 -4.42187 0
M  V30 5297 H 482.404 3.20245 -5.07507 0
M  V30 5298 H 483.474 1.93692 -4.44535 0
M  V30 5299 N 484.817 1.37938 0.762283 0
M  V30 5300 C 485.75 1.2884 1.88349 0
M  V30 5301 C 486.728 0.167084 1.61739 0
M  V30 5302 O 487.912 0.34292 1.85355 0
M  V30 5303 C 485.039 0.994257 3.23778 0
M  V30 5304 C 484.085 2.13376 3.69287 0
M  V30 5305 S 484.918 3.75439 3.81845 0
M  V30 5306 C 486.074 3.48195 5.20107 0
M  V30 5307 H 486.307 2.23736 1.95779 0
M  V30 5308 H 483.84 1.23672 0.924368 0
M  V30 5309 H 485.798 0.83138 4.01993 0
M  V30 5310 H 484.459 0.0626251 3.14038 0
M  V30 5311 H 483.652 1.88319 4.67495 0
M  V30 5312 H 483.254 2.25726 2.98201 0
M  V30 5313 H 485.546 3.0377 6.05583 0
M  V30 5314 H 486.489 4.45765 5.50181 0
M  V30 5315 H 486.897 2.82905 4.88493 0
M  V30 5316 N 486.295 -0.989507 1.22664 0
M  V30 5317 C 487.572 -1.70326 0.961688 0
M  V30 5318 C 487.952 -2.04537 -0.522279 0
M  V30 5319 O 487.3 -1.73136 -1.49118 0
M  V30 5320 C 487.51 -2.95135 1.86269 0
M  V30 5321 C 488.858 -3.67842 2.12078 0
M  V30 5322 O 489.882 -3.0515 1.83745 0
M  V30 5323 O 488.741 -4.80644 2.60083 0
M  V30 5324 H 485.835 -0.743589 0.361946 0
M  V30 5325 H 488.381 -1.04555 1.33665 0
M  V30 5326 H 487.153 -2.66382 2.8663 0
M  V30 5327 H 486.776 -3.68645 1.48952 0
M  V30 5328 N 487.773 -1.03688 -1.18687 0
M  V30 5329 C 488.998 -0.757819 -1.93059 0
M  V30 5330 C 489.423 0.678353 -1.75442 0
M  V30 5331 O 488.781 1.46938 -1.06203 0
M  V30 5332 C 488.829 -1.12423 -3.42627 0
M  V30 5333 O 487.933 -0.247505 -4.11657 0
M  V30 5334 H 487.274 -0.279245 -0.602427 0
M  V30 5335 H 489.804 -1.3857 -1.5053 0
M  V30 5336 H 489.814 -1.08454 -3.93322 0
M  V30 5337 H 488.489 -2.17049 -3.54771 0
M  V30 5338 H 487.066 -0.34649 -3.71287 0
M  V30 5339 N 489.251 1.34841 -0.815825 0
M  V30 5340 C 490.528 1.92908 -0.323416 0
M  V30 5341 C 490.908 1.74479 1.18828 0
M  V30 5342 O 490.256 1.11928 1.99209 0
M  V30 5343 C 490.466 3.40957 -0.744952 0
M  V30 5344 C 491.814 4.18107 -0.739716 0
M  V30 5345 O 492.838 3.49511 -0.68708 0
M  V30 5346 O 491.697 5.40517 -0.806456 0
M  V30 5347 H 488.791 0.822436 -0.0867646 0
M  V30 5348 H 491.337 1.4386 -0.90014 0
M  V30 5349 H 490.109 3.4814 -1.78646 0
M  V30 5350 H 489.732 3.97341 -0.143535 0
M  V30 5351 N 490.729 0.570148 1.46925 0
M  V30 5352 C 491.954 0.0542592 2.07329 0
M  V30 5353 C 492.379 -1.23582 1.41806 0
M  V30 5354 O 491.737 -1.74341 0.497479 0
M  V30 5355 C 491.785 -0.111175 3.60429 0
M  V30 5356 O 490.889 -1.17071 3.95434 0
M  V30 5357 H 490.23 0.0571425 0.661537 0
M  V30 5358 H 492.76 0.789516 1.88753 0
M  V30 5359 H 492.77 -0.321315 4.06733 0
M  V30 5360 H 491.445 0.831012 4.07513 0
M  V30 5361 H 490.022 -0.940029 3.60857 0
M  V30 5362 N 492.207 -1.54576 0.307264 0
M  V30 5363 C 493.455 -1.99867 -0.299574 0
M  V30 5364 C 493.776 -1.19714 -1.53927 0
M  V30 5365 O 493.046 -0.29472 -1.9367 0
M  V30 5366 H 491.626 -0.738299 -0.113683 0
M  V30 5367 H 494.288 -1.9032 0.420042 0
M  V30 5368 H 493.384 -3.06901 -0.567283 0
M  V30 5369 N 493.685 -0.035106 -1.57561 0
M  V30 5370 C 494.633 0.962707 -2.11742 0
M  V30 5371 C 495.627 1.33296 -1.0454 0
M  V30 5372 O 496.833 1.31449 -1.22968 0
M  V30 5373 H 493.208 0.32826 -0.676572 0
M  V30 5374 H 495.179 0.48048 -2.94506 0
M  V30 5375 C 493.928 2.23388 -2.66445 0
M  V30 5376 H 493.251 1.95774 -3.48587 0
M  V30 5377 H 494.691 2.91402 -3.07995 0
M  V30 5378 C 493.15 2.96769 -1.59467 0
M  V30 5379 O 493.68 3.89105 -0.998 0
M  V30 5380 N 491.886 2.59212 -1.31369 0
M  V30 5381 H 491.433 1.84202 -1.80076 0
M  V30 5382 H 491.391 3.08618 -0.600173 0
M  V30 5383 N 495.163 1.55791 0.238111 0
M  V30 5384 C 496.393 1.81834 0.980809 0
M  V30 5385 C 496.801 0.609741 1.79106 0
M  V30 5386 O 496.144 -0.431073 1.78571 0
M  V30 5387 C 496.206 3.01363 1.96011 0
M  V30 5388 C 495.87 4.37037 1.33597 0
M  V30 5389 C 496.867 5.14692 0.734063 0
M  V30 5390 C 494.552 4.83743 1.3527 0
M  V30 5391 C 496.546 6.37206 0.157208 0
M  V30 5392 C 494.233 6.06204 0.77199 0
M  V30 5393 C 495.231 6.82775 0.175282 0
M  V30 5394 O 494.919 8.02922 -0.396432 0
M  V30 5395 H 494.651 0.6088 0.293834 0
M  V30 5396 H 497.205 2.03702 0.263552 0
M  V30 5397 H 495.435 2.75273 2.71591 0
M  V30 5398 H 497.124 3.14422 2.56697 0
M  V30 5399 H 497.89 4.79722 0.713582 0
M  V30 5400 H 493.769 4.24129 1.80653 0
M  V30 5401 H 497.313 6.96915 -0.30917 0
M  V30 5402 H 493.21 6.4065 0.789828 0
M  V30 5403 H 493.978 8.17989 -0.289145 0
M  V30 5404 N 496.642 -0.504142 1.49319 0
M  V30 5405 C 497.572 -1.61473 1.68667 0
M  V30 5406 C 498.553 -1.61455 0.535378 0
M  V30 5407 O 499.738 -1.78245 0.770868 0
M  V30 5408 C 496.868 -2.99971 1.75028 0
M  V30 5409 C 495.822 -3.14854 2.89916 0
M  V30 5410 C 495.148 -4.54671 2.81387 0
M  V30 5411 C 496.448 -2.95176 4.30893 0
M  V30 5412 H 498.142 -1.45535 2.61648 0
M  V30 5413 H 495.688 -0.698711 1.25913 0
M  V30 5414 H 497.641 -3.77562 1.8715 0
M  V30 5415 H 496.365 -3.1699 0.786441 0
M  V30 5416 H 495.024 -2.39687 2.77391 0
M  V30 5417 H 494.672 -4.68562 1.82917 0
M  V30 5418 H 494.372 -4.6557 3.58494 0
M  V30 5419 H 495.896 -5.34327 2.95512 0
M  V30 5420 H 497.31 -3.62538 4.44116 0
M  V30 5421 H 495.707 -3.17549 5.09198 0
M  V30 5422 H 496.777 -1.91332 4.45556 0
M  V30 5423 N 498.12 -1.38341 -0.754957 0
M  V30 5424 C 499.067 -1.3546 -1.86867 0
M  V30 5425 C 500.037 -0.217369 -1.64672 0
M  V30 5426 O 501.222 -0.409383 -1.86356 0
M  V30 5427 C 498.362 -1.18413 -3.24149 0
M  V30 5428 C 497.475 -2.41511 -3.58185 0
M  V30 5429 C 496.61 -2.17205 -4.84763 0
M  V30 5430 C 495.649 -3.36081 -5.11582 0
M  V30 5431 N 494.786 -3.11219 -6.29354 0
M  V30 5432 H 499.626 -2.30672 -1.88664 0
M  V30 5433 H 497.163 -1.14607 -0.922154 0
M  V30 5434 H 499.121 -1.06545 -4.03366 0
M  V30 5435 H 497.751 -0.268397 -3.21682 0
M  V30 5436 H 496.803 -2.64056 -2.73822 0
M  V30 5437 H 498.115 -3.30115 -3.73932 0
M  V30 5438 H 497.269 -2.02465 -5.7192 0
M  V30 5439 H 496.008 -1.25964 -4.71152 0
M  V30 5440 H 495.013 -3.51341 -4.22894 0
M  V30 5441 H 496.238 -4.28196 -5.27091 0
M  V30 5442 H 494.184 -2.22624 -6.17069 0
M  V30 5443 H 494.101 -3.93373 -6.45596 0
M  V30 5444 H 495.369 -3.00132 -7.19403 0
M  V30 5445 N 499.598 0.982988 -1.23187 0
M  V30 5446 C 501.014 1.2487 -0.993967 0
M  V30 5447 C 501.214 1.99155 0.306498 0
M  V30 5448 O 500.27 2.30688 1.0266 0
M  V30 5449 C 501.583 2.05078 -2.19917 0
M  V30 5450 C 503.131 2.18227 -2.2438 0
M  V30 5451 C 503.606 3.01825 -3.44479 0
M  V30 5452 N 505.097 3.09411 -3.44702 0
M  V30 5453 C 505.832 3.74412 -4.34285 0
M  V30 5454 N 505.328 4.41259 -5.341 0
M  V30 5455 N 507.121 3.71273 -4.22035 0
M  V30 5456 H 499.272 0.485253 -2.06783 0
M  V30 5457 H 501.535 0.276979 -0.906635 0
M  V30 5458 H 501.241 1.57867 -3.14279 0
M  V30 5459 H 501.115 3.05829 -2.2079 0
M  V30 5460 H 503.502 2.64648 -1.30559 0
M  V30 5461 H 503.583 1.16873 -2.2754 0
M  V30 5462 H 503.227 2.56102 -4.38605 0
M  V30 5463 H 503.157 4.03342 -3.38559 0
M  V30 5464 H 505.648 2.61845 -2.7248 0
M  V30 5465 H 505.961 4.88629 -5.98717 0
M  V30 5466 H 504.306 4.39975 -5.38002 0
M  V30 5467 H 507.497 3.18217 -3.43301 0
M  V30 5468 H 507.67 4.21649 -4.92053 0
M  V30 5469 N 501.076 1.04316 1.18135 0
M  V30 5470 C 502.039 0.640794 2.2006 0
M  V30 5471 C 503.039 -0.303124 1.57917 0
M  V30 5472 O 504.229 -0.0881855 1.73977 0
M  V30 5473 C 501.361 -0.060148 3.40847 0
M  V30 5474 H 502.554 1.54281 2.57172 0
M  V30 5475 H 500.107 0.836004 1.32063 0
M  V30 5476 H 500.842 -0.975845 3.0927 0
M  V30 5477 H 500.627 0.618319 3.87194 0
M  V30 5478 H 502.117 -0.328082 4.16309 0
M  V30 5479 N 502.554 -1.34406 0.822964 0
M  V30 5480 C 503.484 -2.32052 0.259608 0
M  V30 5481 C 504.465 -1.58243 -0.623961 0
M  V30 5482 O 505.65 -1.86224 -0.55083 0
M  V30 5483 C 502.78 -3.42434 -0.579314 0
M  V30 5484 C 501.734 -4.27499 0.20712 0
M  V30 5485 C 501.06 -5.29349 -0.754547 0
M  V30 5486 C 502.36 -5.02758 1.41533 0
M  V30 5487 H 504.054 -2.79418 1.07545 0
M  V30 5488 H 501.6 -1.34338 0.518593 0
M  V30 5489 H 503.553 -4.0976 -0.983612 0
M  V30 5490 H 502.277 -2.93717 -1.4282 0
M  V30 5491 H 500.936 -3.61776 0.592787 0
M  V30 5492 H 500.584 -4.76895 -1.59939 0
M  V30 5493 H 500.284 -5.8714 -0.232561 0
M  V30 5494 H 501.808 -5.99544 -1.1567 0
M  V30 5495 H 503.222 -5.62938 1.08504 0
M  V30 5496 H 501.619 -5.70123 1.87296 0
M  V30 5497 H 502.689 -4.32451 2.1935 0
M  V30 5498 N 504.032 -0.577932 -1.46621 0
M  V30 5499 C 504.964 0.195801 -2.28362 0
M  V30 5500 C 505.977 0.859983 -1.38232 0
M  V30 5501 O 507.166 0.730349 -1.62875 0
M  V30 5502 C 504.266 1.29639 -3.13124 0
M  V30 5503 C 503.439 0.725049 -4.31349 0
M  V30 5504 C 502.498 1.71274 -4.97546 0
M  V30 5505 O 501.524 1.25067 -5.5529 0
M  V30 5506 N 502.726 3.04672 -4.94121 0
M  V30 5507 H 505.491 -0.505468 -2.95407 0
M  V30 5508 H 503.052 -0.415381 -1.56481 0
M  V30 5509 H 505.044 1.95631 -3.54275 0
M  V30 5510 H 503.614 1.90059 -2.48186 0
M  V30 5511 H 502.834 -0.112205 -3.9404 0
M  V30 5512 H 504.122 0.323034 -5.07774 0
M  V30 5513 H 503.52 3.4484 -4.48444 0
M  V30 5514 H 502.077 3.66166 -5.39227 0
M  V30 5515 N 505.51 1.54411 -0.315457 0
M  V30 5516 C 506.44 2.27002 0.547039 0
M  V30 5517 C 507.421 1.27492 1.12605 0
M  V30 5518 O 508.606 1.5629 1.15269 0
M  V30 5519 C 505.736 3.02171 1.71201 0
M  V30 5520 C 504.69 4.0895 1.26268 0
M  V30 5521 C 504.016 4.71915 2.51396 0
M  V30 5522 C 505.316 5.20891 0.383419 0
M  V30 5523 H 507.01 2.99343 -0.0584517 0
M  V30 5524 H 504.556 1.4397 -0.0295527 0
M  V30 5525 H 506.509 3.51681 2.32161 0
M  V30 5526 H 505.233 2.27433 2.34397 0
M  V30 5527 H 503.892 3.60312 0.676062 0
M  V30 5528 H 503.54 3.93801 3.12937 0
M  V30 5529 H 503.24 5.44039 2.22026 0
M  V30 5530 H 504.764 5.24195 3.13133 0
M  V30 5531 H 506.178 5.66206 0.899082 0
M  V30 5532 H 504.575 5.99821 0.182857 0
M  V30 5533 H 505.645 4.81324 -0.587821 0
M  V30 5534 N 506.988 0.0434614 1.5754 0
M  V30 5535 C 508.213 -0.645358 1.97104 0
M  V30 5536 C 508.638 -1.64037 0.920521 0
M  V30 5537 O 507.996 -1.80922 -0.11708 0
M  V30 5538 C 508.044 -1.31547 3.35749 0
M  V30 5539 O 507.148 -2.43103 3.33129 0
M  V30 5540 H 506.489 -0.168403 0.64229 0
M  V30 5541 H 509.019 0.109573 2.04306 0
M  V30 5542 H 509.029 -1.66895 3.72304 0
M  V30 5543 H 507.704 -0.586205 4.11748 0
M  V30 5544 H 506.281 -2.0976 3.0831 0
M  V30 5545 N 508.466 -1.55915 -0.229846 0
M  V30 5546 C 509.743 -1.6932 -0.979295 0
M  V30 5547 C 510.123 -0.588321 -2.02736 0
M  V30 5548 O 509.471 0.40586 -2.24867 0
M  V30 5549 C 509.681 -3.10305 -1.59724 0
M  V30 5550 C 511.029 -3.6945 -2.09264 0
M  V30 5551 O 512.053 -3.13214 -1.69633 0
M  V30 5552 O 510.912 -4.68072 -2.82082 0
M  V30 5553 H 508.006 -0.689314 -0.456919 0
M  V30 5554 H 510.552 -1.68238 -0.222283 0
M  V30 5555 H 509.324 -3.82177 -0.840039 0
M  V30 5556 H 508.947 -3.1547 -2.42001 0
M  V30 5557 N 509.944 0.496216 -1.49584 0
M  V30 5558 C 511.36 0.827814 -1.36453 0
M  V30 5559 C 511.56 1.97464 -0.401285 0
M  V30 5560 O 510.616 2.51958 0.165296 0
M  V30 5561 C 511.929 1.16352 -2.77277 0
M  V30 5562 C 513.477 1.27145 -2.86013 0
M  V30 5563 C 513.952 1.64042 -4.27615 0
M  V30 5564 N 515.443 1.71082 -4.30448 0
M  V30 5565 C 516.178 2.01085 -5.36984 0
M  V30 5566 N 515.674 2.2928 -6.5376 0
M  V30 5567 N 517.467 2.02376 -5.24405 0
M  V30 5568 H 509.618 -0.259947 -2.10803 0
M  V30 5569 H 511.881 -0.0537163 -0.946477 0
M  V30 5570 H 511.587 0.394153 -3.49484 0
M  V30 5571 H 511.461 2.10582 -3.12946 0
M  V30 5572 H 513.848 2.03152 -2.1404 0
M  V30 5573 H 513.929 0.309542 -2.5392 0
M  V30 5574 H 513.573 0.88583 -5.00115 0
M  V30 5575 H 513.503 2.6134 -4.57175 0
M  V30 5576 H 515.994 1.51434 -3.46232 0
M  V30 5577 H 516.307 2.51376 -7.30774 0
M  V30 5578 H 514.652 2.26726 -6.56978 0
M  V30 5579 H 517.843 1.79829 -4.32179 0
M  V30 5580 H 518.016 2.25425 -6.07526 0
M  V30 5581 N 511.423 1.38739 0.74761 0
M  V30 5582 C 512.37 1.36449 1.86146 0
M  V30 5583 C 513.34 0.226098 1.64554 0
M  V30 5584 O 514.525 0.41926 1.86137 0
M  V30 5585 C 511.665 1.2013 3.23516 0
M  V30 5586 C 510.778 2.43407 3.56899 0
M  V30 5587 C 509.913 2.19773 4.83605 0
M  V30 5588 C 508.952 3.3879 5.09792 0
M  V30 5589 N 508.089 3.14553 6.27695 0
M  V30 5590 H 512.929 2.3167 1.87438 0
M  V30 5591 H 510.466 1.15094 0.916063 0
M  V30 5592 H 512.424 1.08683 4.02795 0
M  V30 5593 H 511.054 0.285453 3.21535 0
M  V30 5594 H 510.106 2.65504 2.72418 0
M  V30 5595 H 511.418 3.32094 3.72176 0
M  V30 5596 H 510.572 2.05496 5.70838 0
M  V30 5597 H 509.311 1.28461 4.70478 0
M  V30 5598 H 508.316 3.53579 4.21025 0
M  V30 5599 H 509.541 4.30986 5.24812 0
M  V30 5600 H 507.487 2.25893 6.1588 0
M  V30 5601 H 507.404 3.96791 6.435 0
M  V30 5602 H 508.672 3.03943 7.17801 0
M  V30 5603 N 512.901 -0.976442 1.23707 0
M  V30 5604 C 513.849 -2.09078 1.01927 0
M  V30 5605 C 514.843 -1.69345 -0.0430193 0
M  V30 5606 O 516.049 -1.79659 0.110814 0
M  V30 5607 H 512.424 -0.68398 0.312531 0
M  V30 5608 H 514.395 -2.24614 1.96447 0
M  V30 5609 C 513.144 -3.41919 0.631385 0
M  V30 5610 H 512.467 -3.72946 1.44053 0
M  V30 5611 H 513.907 -4.20817 0.518532 0
M  V30 5612 C 512.366 -3.30357 -0.660723 0
M  V30 5613 O 512.896 -3.63542 -1.70881 0
M  V30 5614 N 511.102 -2.83507 -0.638139 0
M  V30 5615 H 510.649 -2.567 0.215108 0
M  V30 5616 H 510.607 -2.76153 -1.50289 0
M  V30 5617 N 514.379 -1.04941 -1.1758 0
M  V30 5618 C 515.309 -0.669172 -2.23706 0
M  V30 5619 C 516.29 0.331835 -1.66832 0
M  V30 5620 O 517.475 0.209988 -1.93061 0
M  V30 5621 C 514.605 -0.0404889 -3.47276 0
M  V30 5622 C 513.559 -0.965983 -4.16957 0
M  V30 5623 C 512.885 -0.201312 -5.34321 0
M  V30 5624 C 514.185 -2.28902 -4.69469 0
M  V30 5625 H 515.879 -1.55639 -2.55767 0
M  V30 5626 H 513.425 -0.749793 -1.22939 0
M  V30 5627 H 515.378 0.237298 -4.20731 0
M  V30 5628 H 514.102 0.881658 -3.14475 0
M  V30 5629 H 512.761 -1.22829 -3.45411 0
M  V30 5630 H 512.409 0.723519 -4.97769 0
M  V30 5631 H 512.109 -0.817968 -5.81879 0
M  V30 5632 H 513.633 0.0692499 -6.10561 0
M  V30 5633 H 515.047 -2.07132 -5.34574 0
M  V30 5634 H 513.444 -2.85942 -5.27596 0
M  V30 5635 H 514.514 -2.92937 -3.86414 0
M  V30 5636 N 515.857 1.33968 -0.830081 0
M  V30 5637 C 517.103 1.98357 -0.422191 0
M  V30 5638 C 517.436 1.65633 1.01387 0
M  V30 5639 O 516.711 0.931648 1.70735 0
M  V30 5640 C 516.994 3.54492 -0.633043 0
M  V30 5641 C 516.847 3.96934 -2.11574 0
M  V30 5642 C 518.166 4.40039 -0.0735584 0
M  V30 5643 H 515.285 0.720544 -0.154871 0
M  V30 5644 H 517.927 1.58749 -1.04397 0
M  V30 5645 H 516.077 3.88361 -0.103775 0
M  V30 5646 H 517.749 3.73363 -2.7092 0
M  V30 5647 H 515.992 3.46984 -2.60354 0
M  V30 5648 H 516.663 5.05651 -2.21406 0
M  V30 5649 H 519.139 4.12764 -0.52585 0
M  V30 5650 H 518.015 5.48327 -0.250841 0
M  V30 5651 H 518.276 4.30124 1.02202 0
M  V30 5652 N 517.335 0.585699 1.46312 0
M  V30 5653 C 518.746 0.159938 1.86014 0
M  V30 5654 C 519.097 -1.27775 1.48889 0
M  V30 5655 O 518.222 -1.96559 0.90519 0
M  V30 5656 C 518.817 0.283485 3.37612 0
M  V30 5657 C 517.376 -0.0874256 3.76298 0
M  V30 5658 C 516.523 0.618055 2.70325 0
M  V30 5659 H 519.474 0.793737 1.37425 0
M  V30 5660 H 519.495 -0.490348 3.77327 0
M  V30 5661 H 519.007 1.32995 3.64601 0
M  V30 5662 H 517.108 -1.13391 3.54927 0
M  V30 5663 H 517.221 0.290975 4.78216 0
M  V30 5664 H 515.585 0.057993 2.54634 0
M  V30 5665 H 516.368 1.66623 3.00153 0
M  V30 5666 N 518.813 -1.54241 0.323641 0
M  V30 5667 C 520.229 -1.59574 -0.0290018 0
M  V30 5668 C 520.429 -1.34017 -1.50472 0
M  V30 5669 O 519.485 -1.12464 -2.26071 0
M  V30 5670 C 520.798 -2.98169 0.389295 0
M  V30 5671 C 522.346 -3.11148 0.339958 0
M  V30 5672 C 522.821 -4.5209 0.733418 0
M  V30 5673 N 524.312 -4.5808 0.686827 0
M  V30 5674 C 525.047 -5.65248 0.963464 0
M  V30 5675 N 524.543 -6.80355 1.30724 0
M  V30 5676 N 526.336 -5.55025 0.88902 0
M  V30 5677 H 518.487 -1.6911 1.28512 0
M  V30 5678 H 520.75 -0.790972 0.522558 0
M  V30 5679 H 520.456 -3.21871 1.41746 0
M  V30 5680 H 520.33 -3.76399 -0.245657 0
M  V30 5681 H 522.717 -2.87182 -0.679002 0
M  V30 5682 H 522.798 -2.35023 1.00985 0
M  V30 5683 H 522.442 -4.76788 1.75029 0
M  V30 5684 H 522.372 -5.26584 0.0412189 0
M  V30 5685 H 524.863 -3.75411 0.43298 0
M  V30 5686 H 525.176 -7.58029 1.5037 0
M  V30 5687 H 523.521 -6.81851 1.3455 0
M  V30 5688 H 526.712 -4.63977 0.619939 0
M  V30 5689 H 526.885 -6.38458 1.10797 0
M  V30 5690 N 520.291 -0.0518155 -1.57515 0
M  V30 5691 C 521.568 0.661727 -1.84067 0
M  V30 5692 C 521.948 1.88999 -0.940351 0
M  V30 5693 O 521.296 2.285 -0.00155404 0
M  V30 5694 C 521.506 1.01841 -3.3381 0
M  V30 5695 C 522.854 1.40043 -4.00841 0
M  V30 5696 O 523.878 1.11073 -3.38439 0
M  V30 5697 O 522.737 1.94111 -5.10865 0
M  V30 5698 H 519.831 0.326702 -0.759733 0
M  V30 5699 H 522.377 -0.0812277 -1.69505 0
M  V30 5700 H 521.149 0.145202 -3.91031 0
M  V30 5701 H 520.772 1.81879 -3.53562 0
M  V30 5702 N 521.769 1.56035 0.221574 0
M  V30 5703 C 522.679 1.95581 1.29558 0
M  V30 5704 C 523.695 0.859639 1.51282 0
M  V30 5705 O 524.871 1.16321 1.64413 0
M  V30 5706 C 521.936 2.26447 2.62531 0
M  V30 5707 C 520.997 3.49632 2.4911 0
M  V30 5708 C 520.23 3.79017 3.75742 0
M  V30 5709 O 520.453 3.10077 4.78757 0
M  V30 5710 O 519.387 4.72507 3.72855 0
M  V30 5711 H 523.213 2.8711 0.990035 0
M  V30 5712 H 520.798 1.43244 0.424434 0
M  V30 5713 H 522.68 2.47494 3.41064 0
M  V30 5714 H 521.355 1.38092 2.92766 0
M  V30 5715 H 520.262 3.33864 1.68777 0
M  V30 5716 H 521.595 4.3837 2.23814 0
M  V30 5717 N 523.247 -0.488276 1.49845 0
M  V30 5718 C 524.157 -1.61451 1.70207 0
M  V30 5719 C 525.173 -1.63877 0.584846 0
M  V30 5720 O 526.349 -1.82063 0.861107 0
M  V30 5721 C 523.414 -2.9776 1.77594 0
M  V30 5722 C 522.475 -3.05861 3.01243 0
M  V30 5723 C 521.708 -4.35668 3.08268 0
M  V30 5724 O 521.931 -5.25197 2.22541 0
M  V30 5725 O 520.865 -4.49005 4.00847 0
M  V30 5726 H 524.691 -1.47199 2.65643 0
M  V30 5727 H 522.276 -0.665939 1.33737 0
M  V30 5728 H 524.158 -3.7875 1.84732 0
M  V30 5729 H 522.833 -3.12248 0.8534 0
M  V30 5730 H 521.74 -2.24012 2.99616 0
M  V30 5731 H 523.073 -2.96304 3.9302 0
M  V30 5732 N 524.725 -1.39134 -0.740242 0
M  V30 5733 C 525.655 -1.40165 -1.86751 0
M  V30 5734 C 526.636 -0.265708 -1.68012 0
M  V30 5735 O 527.821 -0.47076 -1.88408 0
M  V30 5736 C 524.951 -1.2392 -3.2444 0
M  V30 5737 C 523.905 -2.34858 -3.57807 0
M  V30 5738 C 523.231 -2.03707 -4.94376 0
M  V30 5739 C 524.531 -3.77159 -3.61315 0
M  V30 5740 H 526.225 -2.345 -1.86145 0
M  V30 5741 H 523.771 -1.12875 -0.89416 0
M  V30 5742 H 525.724 -1.23263 -4.02969 0
M  V30 5743 H 524.448 -0.26051 -3.25559 0
M  V30 5744 H 523.107 -2.34723 -2.81604 0
M  V30 5745 H 522.755 -1.04289 -4.9207 0
M  V30 5746 H 522.455 -2.78016 -5.17669 0
M  V30 5747 H 523.979 -2.04691 -5.75268 0
M  V30 5748 H 525.393 -3.79252 -4.29931 0
M  V30 5749 H 523.79 -4.50784 -3.96124 0
M  V30 5750 H 524.86 -4.08513 -2.61238 0
M  V30 5751 N 526.204 0.969867 -1.24223 0
M  V30 5752 C 527.444 1.72754 -1.0925 0
M  V30 5753 C 527.808 1.88541 0.362787 0
M  V30 5754 O 529.009 2.61217 0.633969 0
M  V30 5755 C 527.28 3.08204 -1.80957 0
M  V30 5756 S 528.839 3.99418 -1.81688 0
M  V30 5757 H 525.657 0.593981 -0.390778 0
M  V30 5758 H 528.259 1.15792 -1.5752 0
M  V30 5759 H 526.963 2.94372 -2.85961 0
M  V30 5760 H 526.494 3.70232 -1.33012 0
M  V30 5761 H 528.509 4.8828 -0.883001 0
M  V30 5762 N 527.682 1.05563 1.17022 0
M  V30 5763 C 528.931 0.763036 1.8671 0
M  V30 5764 C 529.244 -0.712857 1.82147 0
M  V30 5765 O 530.45 -1.11955 2.47343 0
M  V30 5766 C 528.906 1.31474 3.35026 0
M  V30 5767 C 528.514 2.82034 3.48081 0
M  V30 5768 C 530.258 1.09935 4.10018 0
M  V30 5769 C 528.165 3.30486 4.90442 0
M  V30 5770 H 527.095 0.281747 0.699382 0
M  V30 5771 H 529.746 1.2734 1.32124 0
M  V30 5772 H 528.128 0.732171 3.89173 0
M  V30 5773 H 529.302 3.46178 3.04133 0
M  V30 5774 H 527.617 3.02156 2.86515 0
M  V30 5775 H 530.214 1.43632 5.15048 0
M  V30 5776 H 530.557 0.0373072 4.16283 0
M  V30 5777 H 531.09 1.64732 3.62089 0
M  V30 5778 H 527.829 4.36137 4.89352 0
M  V30 5779 H 527.349 2.71086 5.35044 0
M  V30 5780 H 529.028 3.25382 5.59227 0
M  V30 5781 N 529.16 -1.33526 0.837174 0
M  V30 5782 C 530.39 -2.01754 0.444848 0
M  V30 5783 C 530.798 -1.63149 -0.958072 0
M  V30 5784 O 530.141 -0.839827 -1.63379 0
M  V30 5785 C 530.203 -3.56228 0.483917 0
M  V30 5786 C 529.867 -4.18205 1.84265 0
M  V30 5787 C 530.864 -4.37699 2.80563 0
M  V30 5788 C 528.549 -4.54667 2.13503 0
M  V30 5789 C 530.543 -4.928 4.04261 0
M  V30 5790 C 528.23 -5.09475 3.37458 0
M  V30 5791 C 529.228 -5.28488 4.32654 0
M  V30 5792 O 528.916 -5.82132 5.54417 0
M  V30 5793 H 528.648 -0.652928 0.175104 0
M  V30 5794 H 531.202 -1.71469 1.13082 0
M  V30 5795 H 529.432 -3.85833 -0.258826 0
M  V30 5796 H 531.121 -4.05752 0.109653 0
M  V30 5797 H 531.887 -4.0988 2.59274 0
M  V30 5798 H 527.766 -4.39164 1.40201 0
M  V30 5799 H 531.31 -5.07555 4.78574 0
M  V30 5800 H 527.207 -5.36725 3.58604 0
M  V30 5801 H 527.975 -6.00548 5.56133 0
M  V30 5802 N 530.638 -0.59345 -1.46 0
M  V30 5803 C 531.548 0.135817 -2.34207 0
M  V30 5804 C 532.564 0.875008 -1.50398 0
M  V30 5805 O 533.74 0.835778 -1.83239 0
M  V30 5806 C 530.805 1.12977 -3.27776 0
M  V30 5807 C 529.866 0.394081 -4.27487 0
M  V30 5808 C 529.099 1.34068 -5.16586 0
M  V30 5809 O 529.322 2.5778 -5.08828 0
M  V30 5810 O 528.256 0.845426 -5.95933 0
M  V30 5811 H 532.082 -0.588691 -2.9794 0
M  V30 5812 H 529.667 -0.353784 -1.45151 0
M  V30 5813 H 531.549 1.70261 -3.85473 0
M  V30 5814 H 530.224 1.83556 -2.66625 0
M  V30 5815 H 529.131 -0.220869 -3.73447 0
M  V30 5816 H 530.464 -0.270939 -4.91454 0
M  V30 5817 N 532.116 1.54067 -0.331816 0
M  V30 5818 C 533.064 2.26105 0.54582 0
M  V30 5819 C 534.058 1.27816 1.11173 0
M  V30 5820 O 535.264 1.45565 1.05882 0
M  V30 5821 H 531.639 0.726363 0.194683 0
M  V30 5822 H 533.61 2.98282 -0.083931 0
M  V30 5823 C 532.359 3.03814 1.69092 0
M  V30 5824 H 531.682 3.79269 1.26473 0
M  V30 5825 H 533.122 3.57453 2.28043 0
M  V30 5826 C 531.581 2.12606 2.61343 0
M  V30 5827 O 532.111 1.71437 3.6328 0
M  V30 5828 N 530.317 1.77925 2.29763 0
M  V30 5829 H 529.864 2.11602 1.46909 0
M  V30 5830 H 529.822 1.1718 2.91747 0
M  V30 5831 N 533.594 0.0601682 1.57485 0
M  V30 5832 C 534.541 -0.91112 2.12055 0
M  V30 5833 C 535.511 -1.30298 1.03013 0
M  V30 5834 O 536.696 -1.39087 1.30612 0
M  V30 5835 C 533.836 -2.1775 2.67729 0
M  V30 5836 C 532.949 -1.83933 3.90887 0
M  V30 5837 C 532.084 -3.05096 4.34845 0
M  V30 5838 C 531.123 -2.67241 5.5068 0
M  V30 5839 N 530.26 -3.81127 5.8965 0
M  V30 5840 H 535.1 -0.43888 2.9475 0
M  V30 5841 H 532.637 -0.204995 1.45665 0
M  V30 5842 H 534.595 -2.91866 2.98111 0
M  V30 5843 H 533.225 -2.62535 1.87816 0
M  V30 5844 H 532.277 -0.999287 3.6704 0
M  V30 5845 H 533.589 -1.52074 4.75052 0
M  V30 5846 H 532.743 -3.87502 4.66827 0
M  V30 5847 H 531.482 -3.40139 3.49509 0
M  V30 5848 H 530.487 -1.83254 5.18361 0
M  V30 5849 H 531.712 -2.3338 6.37738 0
M  V30 5850 H 529.658 -4.15954 5.07266 0
M  V30 5851 H 529.575 -3.52997 6.68528 0
M  V30 5852 H 530.843 -4.64145 6.2625 0
M  V30 5853 N 535.072 -1.5615 -0.213296 0
M  V30 5854 C 536.318 -1.79812 -0.937849 0
M  V30 5855 C 536.651 -0.631201 -1.83656 0
M  V30 5856 O 535.926 0.369165 -1.90964 0
M  V30 5857 C 536.209 -3.13613 -1.76972 0
M  V30 5858 C 536.062 -4.40766 -0.89695 0
M  V30 5859 C 537.381 -3.43931 -2.7459 0
M  V30 5860 H 534.5 -0.654138 -0.339518 0
M  V30 5861 H 537.142 -1.88877 -0.20623 0
M  V30 5862 H 535.292 -3.06015 -2.39347 0
M  V30 5863 H 536.964 -4.60392 -0.289306 0
M  V30 5864 H 535.207 -4.33326 -0.202756 0
M  V30 5865 H 535.878 -5.30843 -1.51358 0
M  V30 5866 H 538.354 -3.5171 -2.22349 0
M  V30 5867 H 537.23 -4.38706 -3.29891 0
M  V30 5868 H 537.491 -2.6651 -3.52739 0
M  V30 5869 N 536.55 0.480323 -1.50102 0
M  V30 5870 C 537.778 1.25657 -1.64371 0
M  V30 5871 C 538.193 1.86011 -0.323316 0
M  V30 5872 O 537.55 1.68803 0.693682 0
M  V30 5873 C 537.601 2.37197 -2.728 0
M  V30 5874 O 537.322 1.7932 -3.9972 0
M  V30 5875 C 538.823 3.2823 -2.9796 0
M  V30 5876 H 536.043 0.380369 -0.552775 0
M  V30 5877 H 538.587 0.574379 -1.96268 0
M  V30 5878 H 536.742 3.01208 -2.43623 0
M  V30 5879 H 537.156 2.52701 -4.59611 0
M  V30 5880 H 538.63 4.02725 -3.77513 0
M  V30 5881 H 539.107 3.86462 -2.08671 0
M  V30 5882 H 539.713 2.69964 -3.28633 0
M  V30 5883 N 538.028 1.39524 0.732853 0
M  V30 5884 C 539.439 1.32905 1.31122 0
M  V30 5885 C 539.79 -0.00558708 1.96199 0
M  V30 5886 O 538.915 -0.907706 1.96443 0
M  V30 5887 C 539.51 2.40704 2.38426 0
M  V30 5888 C 538.069 2.37599 2.91931 0
M  V30 5889 C 537.216 2.2248 1.65523 0
M  V30 5890 H 540.167 1.49581 0.530207 0
M  V30 5891 H 540.188 2.07616 3.18867 0
M  V30 5892 H 539.7 3.37829 1.91033 0
M  V30 5893 H 537.801 1.44119 3.43599 0
M  V30 5894 H 537.914 3.32538 3.44899 0
M  V30 5895 H 536.278 1.69691 1.8994 0
M  V30 5896 H 537.061 3.21577 1.20178 0
M  V30 5897 N 539.506 -0.963266 1.24736 0
M  V30 5898 C 540.436 -2.07628 1.06832 0
M  V30 5899 C 541.417 -1.70088 -0.0200566 0
M  V30 5900 O 542.602 -1.93636 0.147854 0
M  V30 5901 C 539.732 -3.40636 0.677069 0
M  V30 5902 C 538.686 -3.9215 1.71471 0
M  V30 5903 C 538.012 -5.21553 1.1784 0
M  V30 5904 C 539.312 -4.19493 3.11164 0
M  V30 5905 H 541.006 -2.22864 1.9993 0
M  V30 5906 H 538.552 -1.07093 0.96266 0
M  V30 5907 H 540.505 -4.17941 0.538792 0
M  V30 5908 H 539.229 -3.25313 -0.289612 0
M  V30 5909 H 537.888 -3.17005 1.84128 0
M  V30 5910 H 537.536 -5.02593 0.202195 0
M  V30 5911 H 537.236 -5.56988 1.87185 0
M  V30 5912 H 538.76 -6.01463 1.05233 0
M  V30 5913 H 540.174 -4.87487 3.01711 0
M  V30 5914 H 538.571 -4.66165 3.77902 0
M  V30 5915 H 539.641 -3.26097 3.58871 0
M  V30 5916 N 540.985 -1.06182 -1.16461 0
M  V30 5917 C 541.935 -0.641619 -2.18786 0
M  V30 5918 C 542.919 0.327122 -1.5754 0
M  V30 5919 O 544.111 0.142746 -1.76423 0
M  V30 5920 C 541.24 -0.0283734 -3.43288 0
M  V30 5921 C 540.326 -1.02154 -4.11613 0
M  V30 5922 N 540.717 -2.19671 -4.55608 0
M  V30 5923 C 539.015 -0.852229 -4.37782 0
M  V30 5924 C 539.716 -2.82583 -5.0845 0
M  V30 5925 N 538.692 -2.10318 -5.01266 0
M  V30 5926 H 542.494 -1.53684 -2.50516 0
M  V30 5927 H 540.008 -0.933349 -1.329 0
M  V30 5928 H 542.005 0.29049 -4.15887 0
M  V30 5929 H 540.665 0.862118 -3.13046 0
M  V30 5930 H 541.676 -2.57453 -4.49375 0
M  V30 5931 H 538.353 -0.0136314 -4.17498 0
M  V30 5932 H 539.743 -3.82298 -5.52538 0
M  V30 5933 N 542.463 1.3308 -0.844243 0
M  V30 5934 C 543.71 1.97605 -0.44255 0
M  V30 5935 C 544.038 1.66856 0.999458 0
M  V30 5936 O 543.293 0.943586 1.7145 0
M  V30 5937 C 543.592 3.52045 -0.616354 0
M  V30 5938 C 543.258 4.02757 -2.02726 0
M  V30 5939 C 541.92 4.16316 -2.41317 0
M  V30 5940 C 544.272 4.29776 -2.9486 0
M  V30 5941 C 541.6 4.54232 -3.71335 0
M  V30 5942 C 543.952 4.69146 -4.24364 0
M  V30 5943 C 542.616 4.80911 -4.62904 0
M  V30 5944 H 541.886 0.723088 -0.161941 0
M  V30 5945 H 544.533 1.58663 -1.0723 0
M  V30 5946 H 542.838 3.91681 0.0966812 0
M  V30 5947 H 544.535 3.99981 -0.285756 0
M  V30 5948 H 541.125 3.9268 -1.71756 0
M  V30 5949 H 545.309 4.18818 -2.6628 0
M  V30 5950 H 540.565 4.61535 -4.00993 0
M  V30 5951 H 544.739 4.89008 -4.95827 0
M  V30 5952 H 542.366 5.10048 -5.63698 0
M  V30 5953 N 543.941 0.601185 1.45683 0
M  V30 5954 C 544.871 -0.108824 2.33246 0
M  V30 5955 C 545.852 -0.865223 1.46451 0
M  V30 5956 O 547.037 -0.83704 1.75235 0
M  V30 5957 C 544.167 -1.11101 3.2905 0
M  V30 5958 C 543.121 -0.468244 4.25431 0
M  V30 5959 C 542.447 -1.57822 5.10878 0
M  V30 5960 C 543.747 0.606469 5.18767 0
M  V30 5961 H 545.441 0.622306 2.92861 0
M  V30 5962 H 542.987 0.300714 1.40825 0
M  V30 5963 H 544.94 -1.61622 3.89174 0
M  V30 5964 H 543.664 -1.87265 2.67581 0
M  V30 5965 H 542.323 0.0160484 3.66596 0
M  V30 5966 H 541.971 -2.32998 4.45781 0
M  V30 5967 H 541.671 -1.15369 5.76163 0
M  V30 5968 H 543.195 -2.08583 5.73869 0
M  V30 5969 H 544.609 0.185589 5.73 0
M  V30 5970 H 543.006 0.952381 5.92494 0
M  V30 5971 H 544.076 1.48559 4.61582 0
M  V30 5972 N 545.419 -1.53889 0.339982 0
M  V30 5973 C 546.665 -2.01152 -0.258003 0
M  V30 5974 C 546.998 -1.22749 -1.50487 0
M  V30 5975 O 546.273 -0.314156 -1.91946 0
M  V30 5976 C 546.556 -3.55468 -0.575717 0
M  V30 5977 C 546.409 -4.44584 0.682996 0
M  V30 5978 C 547.728 -4.1768 -1.38677 0
M  V30 5979 H 544.847 -0.731198 -0.0922992 0
M  V30 5980 H 547.489 -1.84352 0.459814 0
M  V30 5981 H 545.639 -3.69914 -1.18725 0
M  V30 5982 H 547.311 -4.41981 1.32102 0
M  V30 5983 H 545.554 -4.13592 1.3086 0
M  V30 5984 H 546.225 -5.5043 0.416001 0
M  V30 5985 H 548.701 -4.0691 -0.869705 0
M  V30 5986 H 547.577 -5.25734 -1.57783 0
M  V30 5987 H 547.838 -3.72069 -2.38782 0
M  V30 5988 N 546.897 -0.0685191 -1.57451 0
M  V30 5989 C 547.86 0.885173 -2.11417 0
M  V30 5990 C 548.86 1.22853 -1.03748 0
M  V30 5991 O 550.05 1.16235 -1.2975 0
M  V30 5992 C 547.182 2.18964 -2.61281 0
M  V30 5993 H 548.375 0.417034 -2.96986 0
M  V30 5994 H 545.928 0.18014 -1.55258 0
M  V30 5995 H 546.663 2.70321 -1.79156 0
M  V30 5996 H 546.448 1.9534 -3.39977 0
M  V30 5997 H 547.938 2.87242 -3.0312 0
M  V30 5998 N 548.375 1.56261 0.205012 0
M  V30 5999 C 549.307 1.90266 1.27795 0
M  V30 6000 C 550.32 0.792397 1.42214 0
M  V30 6001 O 551.509 1.07077 1.42817 0
M  V30 6002 C 548.609 2.11074 2.65143 0
M  V30 6003 C 547.782 3.42176 2.7246 0
M  V30 6004 C 546.841 3.52216 3.90936 0
M  V30 6005 O 545.867 4.25119 3.78501 0
M  V30 6006 N 547.069 2.84573 5.05963 0
M  V30 6007 H 549.834 2.82896 0.989434 0
M  V30 6008 H 547.395 1.57008 0.394981 0
M  V30 6009 H 549.387 2.15089 3.4281 0
M  V30 6010 H 547.957 1.2499 2.86524 0
M  V30 6011 H 547.177 3.50116 1.81142 0
M  V30 6012 H 548.465 4.28509 2.74331 0
M  V30 6013 H 547.863 2.25152 5.18963 0
M  V30 6014 H 546.42 2.94228 5.81613 0
M  V30 6015 N 549.853 -0.472356 1.50355 0
M  V30 6016 C 551.101 -1.22211 1.60962 0
M  V30 6017 C 551.422 -1.92497 0.311439 0
M  V30 6018 O 550.692 -1.8405 -0.671002 0
M  V30 6019 H 549.272 -0.454092 0.593135 0
M  V30 6020 H 551.934 -0.544977 1.87126 0
M  V30 6021 H 551.03 -1.9707 2.42012 0
M  V30 6022 N 551.331 -1.39911 -0.725443 0
M  V30 6023 C 552.556 -1.41137 -1.5197 0
M  V30 6024 C 552.981 -0.010262 -1.88097 0
M  V30 6025 O 552.339 0.979184 -1.52583 0
M  V30 6026 C 552.387 -2.2994 -2.77777 0
M  V30 6027 O 551.491 -1.73586 -3.74088 0
M  V30 6028 H 550.832 -0.480219 -0.458569 0
M  V30 6029 H 553.362 -1.84023 -0.894249 0
M  V30 6030 H 553.372 -2.44785 -3.26411 0
M  V30 6031 H 552.047 -3.31759 -2.50816 0
M  V30 6032 H 550.624 -1.68035 -3.32894 0
M  V30 6033 N 552.809 0.956637 -1.25245 0
M  V30 6034 C 554.055 1.70352 -1.10036 0
M  V30 6035 C 554.388 1.90869 0.358156 0
M  V30 6036 O 553.663 1.47819 1.26411 0
M  V30 6037 C 553.946 3.08766 -1.85298 0
M  V30 6038 C 553.799 2.95672 -3.38966 0
M  V30 6039 C 555.118 4.08622 -1.63451 0
M  V30 6040 H 552.237 0.618279 -0.401123 0
M  V30 6041 H 554.879 1.11212 -1.54051 0
M  V30 6042 H 553.029 3.59252 -1.47887 0
M  V30 6043 H 554.701 2.52527 -3.86041 0
M  V30 6044 H 552.944 2.31634 -3.6678 0
M  V30 6045 H 553.615 3.93776 -3.86839 0
M  V30 6046 H 556.091 3.67038 -1.96015 0
M  V30 6047 H 554.967 5.03514 -2.18551 0
M  V30 6048 H 555.228 4.3834 -0.575357 0
M  V30 6049 N 554.287 1.06798 1.15896 0
M  V30 6050 C 555.197 0.694564 2.24083 0
M  V30 6051 C 556.213 -0.291687 1.71538 0
M  V30 6052 O 557.389 -0.139723 2.00915 0
M  V30 6053 C 554.454 0.0921014 3.46578 0
M  V30 6054 C 553.515 1.13087 4.14137 0
M  V30 6055 C 552.748 0.557064 5.30785 0
M  V30 6056 O 552.971 -0.628623 5.66925 0
M  V30 6057 O 551.905 1.29924 5.8771 0
M  V30 6058 H 555.731 1.59663 2.58344 0
M  V30 6059 H 553.316 0.840575 1.2351 0
M  V30 6060 H 555.198 -0.241884 4.20705 0
M  V30 6061 H 553.873 -0.78337 3.14078 0
M  V30 6062 H 552.78 1.51712 3.41957 0
M  V30 6063 H 554.113 1.97805 4.50704 0
M  V30 6064 N 555.766 -1.3263 0.851289 0
M  V30 6065 C 556.698 -2.27824 0.250757 0
M  V30 6066 C 557.711 -1.52285 -0.575598 0
M  V30 6067 O 558.9 -1.73946 -0.400638 0
M  V30 6068 C 556 -3.3232 -0.664571 0
M  V30 6069 C 555.173 -4.37221 0.125187 0
M  V30 6070 C 554.232 -5.21314 -0.715385 0
M  V30 6071 O 553.258 -5.69002 -0.150111 0
M  V30 6072 N 554.46 -5.43823 -2.03069 0
M  V30 6073 H 557.225 -2.79997 1.06873 0
M  V30 6074 H 554.786 -1.45455 0.710943 0
M  V30 6075 H 556.778 -3.85486 -1.23216 0
M  V30 6076 H 555.348 -2.80331 -1.38323 0
M  V30 6077 H 554.568 -3.84384 0.874199 0
M  V30 6078 H 555.856 -5.04399 0.667774 0
M  V30 6079 H 555.254 -5.06803 -2.51332 0
M  V30 6080 H 553.811 -5.99998 -2.54648 0
M  V30 6081 N 557.244 -0.608902 -1.45362 0
M  V30 6082 C 558.49 -0.104762 -2.02529 0
M  V30 6083 C 558.823 1.26191 -1.47613 0
M  V30 6084 O 558.098 1.8327 -0.65134 0
M  V30 6085 C 558.381 -0.0672661 -3.60037 0
M  V30 6086 C 558.234 -1.4647 -4.25284 0
M  V30 6087 C 559.553 0.619877 -4.35713 0
M  V30 6088 H 556.672 -0.0395438 -0.735938 0
M  V30 6089 H 559.314 -0.781126 -1.73201 0
M  V30 6090 H 557.464 0.50871 -3.85155 0
M  V30 6091 H 559.136 -2.08785 -4.11347 0
M  V30 6092 H 557.379 -2.02502 -3.83634 0
M  V30 6093 H 558.05 -1.39069 -5.34195 0
M  V30 6094 H 560.526 0.130297 -4.15896 0
M  V30 6095 H 559.402 0.615224 -5.45441 0
M  V30 6096 H 559.663 1.68621 -4.0868 0
M  V30 6097 N 558.722 1.53707 -0.348139 0
M  V30 6098 C 560.138 1.596 0.00361134 0
M  V30 6099 C 560.338 1.36394 1.4832 0
M  V30 6100 O 559.394 1.16046 2.24253 0
M  V30 6101 C 560.707 2.97512 -0.436682 0
M  V30 6102 C 562.255 3.10568 -0.389416 0
M  V30 6103 C 562.73 4.50866 -0.805249 0
M  V30 6104 N 564.221 4.56929 -0.759616 0
M  V30 6105 C 564.956 5.63643 -1.05327 0
M  V30 6106 N 564.452 6.78189 -1.41531 0
M  V30 6107 N 566.245 5.5354 -0.977207 0
M  V30 6108 H 558.396 1.67044 -1.31187 0
M  V30 6109 H 560.659 0.782559 -0.535075 0
M  V30 6110 H 560.365 3.19575 -1.46849 0
M  V30 6111 H 560.239 3.76742 0.185744 0
M  V30 6112 H 562.626 2.88226 0.633228 0
M  V30 6113 H 562.707 2.33387 -1.04711 0
M  V30 6114 H 562.351 4.73943 -1.82593 0
M  V30 6115 H 562.281 5.26452 -0.124989 0
M  V30 6116 H 564.772 3.74675 -0.49265 0
M  V30 6117 H 565.085 7.55541 -1.62411 0
M  V30 6118 H 563.43 6.79624 -1.45381 0
M  V30 6119 H 566.621 4.62932 -0.693675 0
M  V30 6120 H 566.794 6.36614 -1.2094 0
M  V30 6121 N 560.2 0.0768682 1.57412 0
M  V30 6122 C 561.13 -0.886026 2.16037 0
M  V30 6123 C 562.111 -1.30691 1.08876 0
M  V30 6124 O 563.296 -1.37705 1.36934 0
M  V30 6125 C 560.426 -2.1518 2.72608 0
M  V30 6126 C 559.38 -1.87015 3.8498 0
M  V30 6127 C 558.706 -3.20266 4.28175 0
M  V30 6128 C 560.006 -1.17143 5.08994 0
M  V30 6129 H 561.7 -0.397642 2.96748 0
M  V30 6130 H 559.246 -0.189823 1.42743 0
M  V30 6131 H 561.199 -2.82962 3.12266 0
M  V30 6132 H 559.923 -2.66269 1.89125 0
M  V30 6133 H 558.582 -1.21636 3.45833 0
M  V30 6134 H 558.23 -3.69207 3.41607 0
M  V30 6135 H 557.93 -3.0221 5.03927 0
M  V30 6136 H 559.454 -3.89237 4.70454 0
M  V30 6137 H 560.868 -1.75003 5.45937 0
M  V30 6138 H 559.265 -1.09328 5.90057 0
M  V30 6139 H 560.335 -0.151295 4.84664 0
M  V30 6140 N 561.678 -1.56367 -0.196722 0
M  V30 6141 C 562.608 -1.97442 -1.24655 0
M  V30 6142 C 563.589 -0.846147 -1.47561 0
M  V30 6143 O 564.774 -1.11035 -1.59326 0
M  V30 6144 C 561.904 -2.31253 -2.59112 0
M  V30 6145 C 560.858 -3.46804 -2.50821 0
M  V30 6146 C 560.184 -3.66286 -3.89536 0
M  V30 6147 C 561.484 -4.8104 -2.03465 0
M  V30 6148 H 563.178 -2.85388 -0.905216 0
M  V30 6149 H 560.724 -1.37304 -0.434002 0
M  V30 6150 H 562.677 -2.58583 -3.32736 0
M  V30 6151 H 561.401 -1.40188 -2.94983 0
M  V30 6152 H 560.06 -3.19563 -1.79653 0
M  V30 6153 H 559.708 -2.72555 -4.22756 0
M  V30 6154 H 559.408 -4.4402 -3.84864 0
M  V30 6155 H 560.932 -3.9599 -4.64784 0
M  V30 6156 H 562.346 -5.07411 -2.66846 0
M  V30 6157 H 560.743 -5.62232 -2.09798 0
M  V30 6158 H 561.813 -4.74732 -0.98781 0
M  V30 6159 N 563.156 0.464375 -1.50603 0
M  V30 6160 C 564.086 1.56944 -1.72889 0
M  V30 6161 C 565.067 1.59979 -0.577997 0
M  V30 6162 O 566.252 1.76138 -0.817855 0
M  V30 6163 C 563.382 2.95225 -1.8292 0
M  V30 6164 C 562.336 3.07056 -2.98162 0
M  V30 6165 C 561.662 4.47051 -2.93343 0
M  V30 6166 C 562.962 2.83648 -4.38567 0
M  V30 6167 H 564.656 1.38547 -2.65415 0
M  V30 6168 H 562.202 0.665082 -1.27721 0
M  V30 6169 H 564.155 3.72467 -1.97095 0
M  V30 6170 H 562.879 3.14793 -0.870209 0
M  V30 6171 H 561.538 2.32248 -2.83648 0
M  V30 6172 H 561.186 4.63547 -1.95276 0
M  V30 6173 H 560.886 4.55902 -3.70712 0
M  V30 6174 H 562.41 5.26304 -3.09575 0
M  V30 6175 H 563.824 3.50636 -4.53572 0
M  V30 6176 H 562.221 3.03937 -5.17438 0
M  V30 6177 H 563.291 1.79451 -4.50472 0
M  V30 6178 N 564.634 1.40294 0.718013 0
M  V30 6179 C 565.597 1.4012 1.81381 0
M  V30 6180 C 566.597 0.295405 1.58063 0
M  V30 6181 O 567.787 0.554187 1.6515 0
M  V30 6182 C 564.919 1.19056 3.19435 0
M  V30 6183 H 566.112 2.37645 1.82933 0
M  V30 6184 H 563.665 1.26107 0.923405 0
M  V30 6185 H 564.4 0.222809 3.23534 0
M  V30 6186 H 564.185 1.99152 3.37758 0
M  V30 6187 H 565.675 1.21716 3.99468 0
M  V30 6188 N 566.112 -0.949982 1.2575 0
M  V30 6189 C 567.062 -2.03297 1.03221 0
M  V30 6190 C 568.046 -1.60867 -0.0324751 0
M  V30 6191 O 569.238 -1.76047 0.183423 0
M  V30 6192 C 566.367 -3.36938 0.657841 0
M  V30 6193 C 565.453 -3.85878 1.75952 0
M  V30 6194 N 565.844 -4.0756 2.99547 0
M  V30 6195 C 564.142 -4.14709 1.64111 0
M  V30 6196 C 564.843 -4.47961 3.71087 0
M  V30 6197 N 563.819 -4.5416 2.98731 0
M  V30 6198 H 567.621 -2.1806 1.97045 0
M  V30 6199 H 565.135 -1.13516 1.16138 0
M  V30 6200 H 567.132 -4.14155 0.477614 0
M  V30 6201 H 565.792 -3.2355 -0.273025 0
M  V30 6202 H 566.803 -3.94501 3.35544 0
M  V30 6203 H 563.48 -4.10158 0.779527 0
M  V30 6204 H 564.87 -4.73002 4.77199 0
M  V30 6205 N 567.59 -1.07411 -1.15328 0
M  V30 6206 C 568.5 -0.706438 -2.23711 0
M  V30 6207 C 569.516 0.282586 -1.7169 0
M  V30 6208 O 570.692 0.129066 -2.00986 0
M  V30 6209 C 567.757 -0.11048 -3.46524 0
M  V30 6210 C 566.818 -1.15282 -4.13532 0
M  V30 6211 C 566.051 -0.585205 -5.30482 0
M  V30 6212 O 566.274 0.598549 -5.67251 0
M  V30 6213 O 565.208 -1.33039 -5.87013 0
M  V30 6214 H 569.034 -1.61031 -2.57493 0
M  V30 6215 H 566.619 -0.847113 -1.23062 0
M  V30 6216 H 568.501 0.21957 -4.20828 0
M  V30 6217 H 567.176 0.766703 -3.14489 0
M  V30 6218 H 566.083 -1.53523 -3.41147 0
M  V30 6219 H 567.416 -2.00192 -4.49649 0
M  V30 6220 N 569.068 1.32177 -0.85831 0
M  V30 6221 C 570.314 1.97417 -0.46417 0
M  V30 6222 C 570.647 1.67746 0.978514 0
M  V30 6223 O 569.922 0.967654 1.68721 0
M  V30 6224 C 570.205 3.53069 -0.708094 0
M  V30 6225 C 570.058 3.92357 -2.19946 0
M  V30 6226 C 571.377 4.39783 -0.166881 0
M  V30 6227 H 568.496 0.717097 -0.17012 0
M  V30 6228 H 571.138 1.56499 -1.07741 0
M  V30 6229 H 569.288 3.88054 -0.186128 0
M  V30 6230 H 570.96 3.67533 -2.78779 0
M  V30 6231 H 569.203 3.41384 -2.67656 0
M  V30 6232 H 569.874 5.00841 -2.32082 0
M  V30 6233 H 572.35 4.11556 -0.613285 0
M  V30 6234 H 571.226 5.47671 -0.367093 0
M  V30 6235 H 571.487 4.32196 0.930559 0
M  V30 6236 N 570.547 0.616602 1.45037 0
M  V30 6237 C 571.824 0.0469086 1.95544 0
M  V30 6238 C 572.204 -1.42345 1.55888 0
M  V30 6239 O 571.552 -2.13055 0.825824 0
M  V30 6240 C 571.762 0.254489 3.48071 0
M  V30 6241 C 573.11 0.140025 4.24369 0
M  V30 6242 O 574.134 0.185084 3.55719 0
M  V30 6243 O 572.993 0.0327034 5.4649 0
M  V30 6244 H 570.087 -0.0306051 0.826433 0
M  V30 6245 H 572.633 0.687293 1.55159 0
M  V30 6246 H 571.405 1.27532 3.69934 0
M  V30 6247 H 571.028 -0.42073 3.95368 0
M  V30 6248 N 572.025 -1.5352 0.356285 0
M  V30 6249 C 573.271 -2.01414 -0.236653 0
M  V30 6250 C 573.604 -1.24339 -1.49176 0
M  V30 6251 O 572.879 -0.334496 -1.91602 0
M  V30 6252 C 573.162 -3.56059 -0.537982 0
M  V30 6253 C 573.015 -4.43835 0.730112 0
M  V30 6254 C 574.334 -4.19127 -1.34239 0
M  V30 6255 H 571.453 -0.732135 -0.0845386 0
M  V30 6256 H 574.095 -1.83854 0.479341 0
M  V30 6257 H 572.245 -3.71153 -1.14795 0
M  V30 6258 H 573.917 -4.40555 1.36782 0
M  V30 6259 H 572.16 -4.1218 1.3524 0
M  V30 6260 H 572.831 -5.49958 0.474358 0
M  V30 6261 H 575.307 -4.07809 -0.826498 0
M  V30 6262 H 574.183 -5.27378 -1.52198 0
M  V30 6263 H 574.444 -3.74581 -2.34822 0
M  V30 6264 N 573.503 -0.0852151 -1.57369 0
M  V30 6265 C 574.78 0.622534 -1.85429 0
M  V30 6266 C 575.16 1.86962 -0.980229 0
M  V30 6267 O 574.508 2.28445 -0.0500219 0
M  V30 6268 C 574.718 0.947374 -3.35896 0
M  V30 6269 C 576.066 1.31509 -4.03721 0
M  V30 6270 O 577.09 1.03869 -3.40719 0
M  V30 6271 O 575.949 1.83231 -5.14868 0
M  V30 6272 H 573.043 0.310513 -0.766492 0
M  V30 6273 H 575.589 -0.117164 -1.69295 0
M  V30 6274 H 574.361 0.0622264 -3.91251 0
M  V30 6275 H 573.984 1.74338 -3.5734 0
M  V30 6276 N 574.981 1.5647 0.188427 0
M  V30 6277 C 576.221 1.82803 0.914469 0
M  V30 6278 C 576.585 0.663681 1.80165 0
M  V30 6279 O 577.786 0.807059 2.56398 0
M  V30 6280 C 576.057 3.14187 1.70357 0
M  V30 6281 S 577.616 3.61947 2.48072 0
M  V30 6282 H 574.434 0.641497 0.306599 0
M  V30 6283 H 577.036 1.94694 0.177361 0
M  V30 6284 H 575.74 3.96937 1.04255 0
M  V30 6285 H 575.271 3.05192 2.48237 0
M  V30 6286 H 577.286 3.27913 3.72407 0
M  V30 6287 N 576.459 -0.456382 1.50847 0
M  V30 6288 C 577.391 -1.57033 1.66953 0
M  V30 6289 C 578.404 -1.53207 0.550593 0
M  V30 6290 O 579.593 -1.58328 0.824285 0
M  V30 6291 C 576.693 -2.95937 1.65149 0
M  V30 6292 C 575.866 -3.24475 2.93317 0
M  V30 6293 C 574.925 -4.43007 2.83957 0
M  V30 6294 O 573.951 -4.42592 3.57912 0
M  V30 6295 N 575.153 -5.45503 1.9851 0
M  V30 6296 H 577.918 -1.43629 2.63042 0
M  V30 6297 H 575.479 -0.645037 1.48495 0
M  V30 6298 H 577.471 -3.73224 1.56481 0
M  V30 6299 H 576.041 -3.03036 0.767343 0
M  V30 6300 H 575.261 -2.35664 3.16 0
M  V30 6301 H 576.549 -3.4036 3.78196 0
M  V30 6302 H 575.947 -5.48668 1.37766 0
M  V30 6303 H 574.504 -6.21716 1.95735 0
M  V30 6304 N 577.937 -1.40673 -0.710563 0
M  V30 6305 C 579.165 -1.42547 -1.4996 0
M  V30 6306 C 579.58 -0.0265485 -1.88781 0
M  V30 6307 O 578.937 0.950694 -1.55782 0
M  V30 6308 C 578.988 -2.32071 -2.77173 0
M  V30 6309 O 578.709 -3.66518 -2.39992 0
M  V30 6310 C 580.21 -2.42591 -3.71032 0
M  V30 6311 H 577.43 -0.486025 -0.462623 0
M  V30 6312 H 579.974 -1.84783 -0.876102 0
M  V30 6313 H 578.129 -1.93184 -3.35795 0
M  V30 6314 H 578.543 -4.14115 -3.21884 0
M  V30 6315 H 580.017 -3.09429 -4.57119 0
M  V30 6316 H 580.494 -1.4525 -4.14486 0
M  V30 6317 H 581.1 -2.82051 -3.18319 0
M  V30 6318 N 579.415 0.9433 -1.26252 0
M  V30 6319 C 580.378 2.02326 -1.07689 0
M  V30 6320 C 581.378 1.60779 -0.0259174 0
M  V30 6321 O 582.568 1.72108 -0.269134 0
M  V30 6322 C 579.7 3.34886 -0.63752 0
M  V30 6323 H 580.893 2.20225 -2.0357 0
M  V30 6324 H 578.446 1.12197 -1.08819 0
M  V30 6325 H 579.181 3.22684 0.323377 0
M  V30 6326 H 578.966 3.66393 -1.39637 0
M  V30 6327 H 580.456 4.14231 -0.529418 0
M  V30 6328 N 580.893 1.08022 1.14757 0
M  V30 6329 C 582.118 0.82895 1.90114 0
M  V30 6330 C 582.543 -0.612772 1.77839 0
M  V30 6331 O 581.901 -1.42895 1.11583 0
M  V30 6332 C 581.949 1.25062 3.38219 0
M  V30 6333 O 581.053 0.400119 4.10454 0
M  V30 6334 H 580.394 0.301412 0.591648 0
M  V30 6335 H 582.924 1.44062 1.45284 0
M  V30 6336 H 582.934 1.22977 3.89025 0
M  V30 6337 H 581.609 2.30067 3.46471 0
M  V30 6338 H 580.186 0.484052 3.69745 0
M  V30 6339 N 582.371 -1.3172 0.865308 0
M  V30 6340 C 583.619 -1.96487 0.472995 0
M  V30 6341 C 583.94 -1.68761 -0.976975 0
M  V30 6342 O 583.21 -1.00051 -1.68424 0
M  V30 6343 H 581.79 -0.726947 0.171922 0
M  V30 6344 H 584.452 -1.60612 1.10407 0
M  V30 6345 H 583.548 -3.0574 0.62687 0
M  V30 6346 N 583.85 -0.624285 -1.44708 0
M  V30 6347 C 585.08 -0.132726 -2.06173 0
M  V30 6348 C 585.488 1.19513 -1.46674 0
M  V30 6349 O 584.831 1.74254 -0.581491 0
M  V30 6350 C 584.893 0.0636732 -3.59444 0
M  V30 6351 C 584.557 -1.18496 -4.4137 0
M  V30 6352 C 585.553 -2.10706 -4.75288 0
M  V30 6353 C 583.239 -1.41846 -4.81856 0
M  V30 6354 C 585.233 -3.24582 -5.48567 0
M  V30 6355 C 582.92 -2.5602 -5.54885 0
M  V30 6356 C 583.918 -3.47215 -5.88159 0
M  V30 6357 O 583.606 -4.59399 -6.59703 0
M  V30 6358 H 583.338 -0.0737313 -0.671967 0
M  V30 6359 H 585.892 -0.856789 -1.86677 0
M  V30 6360 H 584.122 0.842809 -3.77404 0
M  V30 6361 H 585.811 0.508924 -4.02697 0
M  V30 6362 H 586.577 -1.93898 -4.44554 0
M  V30 6363 H 582.456 -0.717556 -4.55381 0
M  V30 6364 H 586 -3.95785 -5.74456 0
M  V30 6365 H 581.897 -2.72774 -5.85034 0
M  V30 6366 H 582.665 -4.58293 -6.78166 0
M  V30 6367 N 585.328 1.53329 -0.364422 0
M  V30 6368 C 586.556 2.05657 0.226424 0
M  V30 6369 C 586.971 1.23801 1.42544 0
M  V30 6370 O 586.328 0.27839 1.80364 0
M  V30 6371 C 586.379 3.56125 0.621056 0
M  V30 6372 O 586.1 4.34879 -0.530304 0
M  V30 6373 C 587.601 4.24706 1.27041 0
M  V30 6374 H 584.821 0.669806 0.0400056 0
M  V30 6375 H 587.365 1.97714 -0.522456 0
M  V30 6376 H 585.52 3.64223 1.31985 0
M  V30 6377 H 585.934 5.24073 -0.211546 0
M  V30 6378 H 587.408 5.3131 1.49711 0
M  V30 6379 H 587.885 3.78354 2.23036 0
M  V30 6380 H 588.491 4.20858 0.613079 0
M  V30 6381 N 586.806 0.0935595 1.57322 0
M  V30 6382 C 588.217 -0.435807 1.81542 0
M  V30 6383 C 588.568 -1.68263 1.00907 0
M  V30 6384 O 587.693 -2.15087 0.237983 0
M  V30 6385 C 588.288 -0.797436 3.29282 0
M  V30 6386 C 586.847 -1.27155 3.54272 0
M  V30 6387 C 585.994 -0.267455 2.76007 0
M  V30 6388 H 588.945 0.31902 1.5546 0
M  V30 6389 H 588.966 -1.6571 3.42521 0
M  V30 6390 H 588.478 0.110206 3.87943 0
M  V30 6391 H 586.579 -2.19696 3.00939 0
M  V30 6392 H 586.692 -1.23445 4.62923 0
M  V30 6393 H 585.056 -0.749282 2.43429 0
M  V30 6394 H 585.839 0.632839 3.37417 0
M  V30 6395 N 588.284 -1.56567 -0.180126 0
M  V30 6396 C 589.214 -1.98753 -1.22553 0
M  V30 6397 C 590.195 -0.86175 -1.46656 0
M  V30 6398 O 591.38 -1.12719 -1.58139 0
M  V30 6399 C 588.51 -2.33988 -2.56645 0
M  V30 6400 C 587.464 -3.49445 -2.47128 0
M  V30 6401 C 586.79 -3.70397 -3.8563 0
M  V30 6402 C 588.09 -4.83171 -1.98352 0
M  V30 6403 H 589.784 -2.86332 -0.874896 0
M  V30 6404 H 587.33 -1.37757 -0.419414 0
M  V30 6405 H 589.283 -2.62097 -3.29974 0
M  V30 6406 H 588.007 -1.43309 -2.93479 0
M  V30 6407 H 586.666 -3.2145 -1.76254 0
M  V30 6408 H 586.314 -2.77023 -4.19842 0
M  V30 6409 H 586.014 -4.48077 -3.80132 0
M  V30 6410 H 587.538 -4.00897 -4.60558 0
M  V30 6411 H 588.952 -5.10213 -2.61449 0
M  V30 6412 H 587.349 -5.64425 -2.03823 0
M  V30 6413 H 588.419 -4.75753 -0.937402 0
M  V30 6414 N 589.762 0.448376 -1.51087 0
M  V30 6415 C 590.692 1.55102 -1.74544 0
M  V30 6416 C 591.673 1.59357 -0.594932 0
M  V30 6417 O 592.858 1.75261 -0.836491 0
M  V30 6418 C 589.988 2.93268 -1.86041 0
M  V30 6419 C 588.942 3.03877 -3.01402 0
M  V30 6420 C 588.268 4.43914 -2.98068 0
M  V30 6421 C 589.568 2.7898 -4.41551 0
M  V30 6422 H 591.262 1.35724 -2.66869 0
M  V30 6423 H 588.808 0.651498 -1.28419 0
M  V30 6424 H 590.761 3.70356 -2.01034 0
M  V30 6425 H 589.485 3.13853 -0.903548 0
M  V30 6426 H 588.144 2.29227 -2.86096 0
M  V30 6427 H 587.792 4.6145 -2.00182 0
M  V30 6428 H 587.492 4.51944 -3.75527 0
M  V30 6429 H 589.016 5.22991 -3.1514 0
M  V30 6430 H 590.43 3.45805 -4.57265 0
M  V30 6431 H 588.827 2.98431 -5.20633 0
M  V30 6432 H 589.897 1.74663 -4.5235 0
M  V30 6433 N 591.24 1.41047 0.703093 0
M  V30 6434 C 592.489 1.39301 1.4587 0
M  V30 6435 C 592.802 0.00267077 1.956 0
M  V30 6436 O 594.008 -0.137414 2.71152 0
M  V30 6437 C 592.464 2.44891 2.63735 0
M  V30 6438 C 592.072 3.89796 2.20824 0
M  V30 6439 C 593.816 2.5227 3.41409 0
M  V30 6440 C 591.723 4.86955 3.35602 0
M  V30 6441 H 590.653 0.518005 0.547893 0
M  V30 6442 H 593.304 1.66839 0.764009 0
M  V30 6443 H 591.686 2.10472 3.35436 0
M  V30 6444 H 592.86 4.33424 1.56461 0
M  V30 6445 H 591.175 3.86008 1.56163 0
M  V30 6446 H 593.772 3.22044 4.26839 0
M  V30 6447 H 594.115 1.55714 3.86081 0
M  V30 6448 H 594.648 2.85742 2.7676 0
M  V30 6449 H 591.387 5.84888 2.9595 0
M  V30 6450 H 590.907 4.47982 3.98839 0
M  V30 6451 H 592.586 5.07361 4.01489 0
M  V30 6452 N 592.718 -0.936591 1.26751 0
M  V30 6453 C 593.681 -2.01752 1.08761 0
M  V30 6454 C 594.681 -1.60763 0.0344435 0
M  V30 6455 O 595.871 -1.71963 0.278258 0
M  V30 6456 C 593.003 -3.34543 0.655271 0
M  V30 6457 H 594.196 -2.19143 2.04735 0
M  V30 6458 H 591.749 -1.11618 1.09413 0
M  V30 6459 H 592.484 -3.22851 -0.30626 0
M  V30 6460 H 592.269 -3.65647 1.41578 0
M  V30 6461 H 593.759 -4.13944 0.551378 0
M  V30 6462 N 594.196 -1.08629 -1.14182 0
M  V30 6463 C 595.159 -0.722027 -2.1753 0
M  V30 6464 C 596.159 0.244305 -1.58933 0
M  V30 6465 O 597.349 0.0235545 -1.74184 0
M  V30 6466 C 594.481 -0.0663966 -3.40835 0
M  V30 6467 H 595.674 -1.63719 -2.51269 0
M  V30 6468 H 593.227 -0.884442 -1.28869 0
M  V30 6469 H 593.962 0.860389 -3.12678 0
M  V30 6470 H 593.747 -0.761598 -3.84632 0
M  V30 6471 H 595.237 0.173346 -4.1724 0
M  V30 6472 N 595.674 1.31259 -0.872281 0
M  V30 6473 C 596.606 2.27396 -0.28697 0
M  V30 6474 C 597.619 1.53181 0.551297 0
M  V30 6475 O 598.808 1.74561 0.372914 0
M  V30 6476 C 595.908 3.33335 0.611617 0
M  V30 6477 C 595.081 4.36966 -0.194729 0
M  V30 6478 C 594.14 5.22387 0.632358 0
M  V30 6479 O 593.166 5.69169 0.0595691 0
M  V30 6480 N 594.368 5.46985 1.94391 0
M  V30 6481 H 597.133 2.78261 -1.11314 0
M  V30 6482 H 594.694 1.44306 -0.733994 0
M  V30 6483 H 596.686 3.87398 1.17068 0
M  V30 6484 H 595.256 2.82496 1.33846 0
M  V30 6485 H 594.476 3.82945 -0.935241 0
M  V30 6486 H 595.764 5.03273 -0.747935 0
M  V30 6487 H 595.162 5.10737 2.43237 0
M  V30 6488 H 593.719 6.03973 2.45071 0
M  V30 6489 N 597.152 0.631951 1.44375 0
M  V30 6490 C 598.429 0.067646 1.95483 0
M  V30 6491 C 598.809 -1.40683 1.57389 0
M  V30 6492 O 598.157 -2.12167 0.848375 0
M  V30 6493 C 598.367 0.291392 3.47781 0
M  V30 6494 C 599.715 0.185028 4.24197 0
M  V30 6495 O 600.739 0.222803 3.55503 0
M  V30 6496 O 599.598 0.0906642 5.46425 0
M  V30 6497 H 596.692 -0.0218379 0.826712 0
M  V30 6498 H 599.238 0.703711 1.54421 0
M  V30 6499 H 598.01 1.31449 3.68561 0
M  V30 6500 H 597.633 -0.378772 3.95792 0
M  V30 6501 N 598.631 -1.53133 0.372548 0
M  V30 6502 C 599.563 -2.23557 -0.505444 0
M  V30 6503 C 600.576 -1.25211 -1.04049 0
M  V30 6504 O 601.765 -1.51391 -0.945675 0
M  V30 6505 C 598.865 -2.92516 -1.71136 0
M  V30 6506 C 598.038 -4.17428 -1.30661 0
M  V30 6507 C 597.097 -4.69535 -2.37536 0
M  V30 6508 O 596.123 -5.33042 -1.99637 0
M  V30 6509 N 597.325 -4.47947 -3.6922 0
M  V30 6510 H 600.09 -2.9954 0.0978259 0
M  V30 6511 H 597.651 -1.60684 0.198068 0
M  V30 6512 H 599.643 -3.24281 -2.42124 0
M  V30 6513 H 598.213 -2.19944 -2.22134 0
M  V30 6514 H 597.433 -3.91888 -0.426292 0
M  V30 6515 H 598.721 -4.98622 -1.01259 0
M  V30 6516 H 598.119 -3.97219 -4.02783 0
M  V30 6517 H 596.676 -4.84245 -4.36292 0
M  V30 6518 N 600.109 -0.101901 -1.5727 0
M  V30 6519 C 601.041 0.884723 -2.11436 0
M  V30 6520 C 602.054 1.24149 -1.05314 0
M  V30 6521 O 603.243 1.19341 -1.3274 0
M  V30 6522 C 600.343 2.19179 -2.58484 0
M  V30 6523 C 599.516 2.00933 -3.88516 0
M  V30 6524 C 598.575 3.15213 -4.2134 0
M  V30 6525 O 597.601 2.88877 -4.90448 0
M  V30 6526 N 598.803 4.41174 -3.77288 0
M  V30 6527 H 601.568 0.422058 -2.96713 0
M  V30 6528 H 599.129 0.0830128 -1.61687 0
M  V30 6529 H 601.121 2.94593 -2.77484 0
M  V30 6530 H 599.691 2.56847 -1.7818 0
M  V30 6531 H 598.911 1.09809 -3.78597 0
M  V30 6532 H 600.199 1.86026 -4.73573 0
M  V30 6533 H 599.597 4.6545 -3.21516 0
M  V30 6534 H 598.154 5.13515 -4.01429 0
M  V30 6535 N 601.587 1.56661 0.17182 0
M  V30 6536 C 602.998 1.71652 0.734329 0
M  V30 6537 C 603.349 0.712335 1.82812 0
M  V30 6538 O 602.474 -0.126401 2.16031 0
M  V30 6539 C 603.069 3.11226 1.3388 0
M  V30 6540 C 601.628 3.27904 1.84813 0
M  V30 6541 C 600.775 2.67603 0.726917 0
M  V30 6542 H 603.726 1.5861 -0.0535665 0
M  V30 6543 H 603.747 3.09849 2.20849 0
M  V30 6544 H 603.259 3.8429 0.54249 0
M  V30 6545 H 601.36 2.59796 2.6709 0
M  V30 6546 H 601.473 4.35637 1.99392 0
M  V30 6547 H 599.837 2.274 1.14723 0
M  V30 6548 H 600.62 3.43252 -0.0575334 0
M  V30 6549 N 603.065 -0.440357 1.51323 0
M  V30 6550 C 604.342 -1.20109 1.5438 0
M  V30 6551 C 604.722 -2.08866 0.306303 0
M  V30 6552 O 604.07 -2.1723 -0.708773 0
M  V30 6553 C 604.28 -2.00555 2.8562 0
M  V30 6554 C 605.628 -2.577 3.37455 0
M  V30 6555 O 606.652 -2.10769 2.8715 0
M  V30 6556 O 605.511 -3.43289 4.25224 0
M  V30 6557 H 602.605 -0.546668 0.620551 0
M  V30 6558 H 605.151 -0.449672 1.63634 0
M  V30 6559 H 603.923 -1.35346 3.67147 0
M  V30 6560 H 603.546 -2.82768 2.79514 0
M  V30 6561 N 604.543 -1.41418 -0.695603 0
M  V30 6562 C 605.473 -1.46035 -1.82197 0
M  V30 6563 C 606.454 -0.319025 -1.67082 0
M  V30 6564 O 607.639 -0.530462 -1.86815 0
M  V30 6565 C 604.769 -1.34179 -3.20333 0
M  V30 6566 C 603.723 -2.46123 -3.50154 0
M  V30 6567 C 603.049 -2.19332 -4.87645 0
M  V30 6568 C 604.349 -3.88463 -3.49133 0
M  V30 6569 H 606.043 -2.40303 -1.78591 0
M  V30 6570 H 603.589 -1.15663 -0.857797 0
M  V30 6571 H 605.542 -1.36021 -3.98844 0
M  V30 6572 H 604.266 -0.363952 -3.24566 0
M  V30 6573 H 602.925 -2.43563 -2.73994 0
M  V30 6574 H 602.573 -1.19891 -4.88503 0
M  V30 6575 H 602.273 -2.94344 -5.08562 0
M  V30 6576 H 603.797 -2.22889 -5.68465 0
M  V30 6577 H 605.211 -3.92738 -4.17648 0
M  V30 6578 H 603.608 -4.63158 -3.81582 0
M  V30 6579 H 604.678 -4.16617 -2.48109 0
M  V30 6580 N 606.021 0.929856 -1.27246 0
M  V30 6581 C 607.261 1.6919 -1.14691 0
M  V30 6582 C 607.625 1.896 0.302621 0
M  V30 6583 O 608.826 2.63102 0.550543 0
M  V30 6584 C 607.097 3.02291 -1.9067 0
M  V30 6585 S 608.656 3.93436 -1.94303 0
M  V30 6586 H 605.474 0.581248 -0.409477 0
M  V30 6587 H 608.076 1.10722 -1.61124 0
M  V30 6588 H 606.78 2.85125 -2.95181 0
M  V30 6589 H 606.311 3.65813 -1.44723 0
M  V30 6590 H 608.326 4.85224 -1.0379 0
M  V30 6591 N 607.499 1.09233 1.13605 0
M  V30 6592 C 608.462 0.733553 2.17144 0
M  V30 6593 C 609.462 -0.235873 1.59061 0
M  V30 6594 O 610.652 -0.0143167 1.74194 0
M  V30 6595 C 607.784 0.084471 3.40795 0
M  V30 6596 H 608.977 1.65049 2.50397 0
M  V30 6597 H 606.53 0.891264 1.28399 0
M  V30 6598 H 607.265 -0.843795 3.1313 0
M  V30 6599 H 607.05 0.781985 3.84223 0
M  V30 6600 H 608.54 -0.151216 4.17326 0
M  V30 6601 N 608.977 -1.30795 0.87923 0
M  V30 6602 C 609.907 -2.30742 0.357796 0
M  V30 6603 C 610.888 -1.60747 -0.556283 0
M  V30 6604 O 612.073 -1.88393 -0.47135 0
M  V30 6605 C 609.203 -3.44583 -0.433555 0
M  V30 6606 C 608.157 -4.26235 0.388251 0
M  V30 6607 C 607.483 -5.32073 -0.529352 0
M  V30 6608 C 608.783 -4.96303 1.62729 0
M  V30 6609 H 610.477 -2.74605 1.19299 0
M  V30 6610 H 608.023 -1.32017 0.575104 0
M  V30 6611 H 609.976 -4.13563 -0.808934 0
M  V30 6612 H 608.7 -2.99511 -1.30234 0
M  V30 6613 H 607.359 -3.58936 0.745695 0
M  V30 6614 H 607.007 -4.83249 -1.39569 0
M  V30 6615 H 606.707 -5.87598 0.0166741 0
M  V30 6616 H 608.231 -6.0391 -0.901373 0
M  V30 6617 H 609.645 -5.5783 1.32283 0
M  V30 6618 H 608.042 -5.61666 2.11309 0
M  V30 6619 H 609.112 -4.22758 2.37494 0
M  V30 6620 N 610.455 -0.639598 -1.44038 0
M  V30 6621 C 611.385 0.0469443 -2.33453 0
M  V30 6622 C 612.366 0.82609 -1.48694 0
M  V30 6623 O 613.551 0.790285 -1.77393 0
M  V30 6624 C 610.681 1.02338 -3.3188 0
M  V30 6625 C 609.635 0.355284 -4.26523 0
M  V30 6626 C 608.961 1.44221 -5.14883 0
M  V30 6627 C 610.261 -0.743798 -5.16977 0
M  V30 6628 H 611.955 -0.699735 -2.91108 0
M  V30 6629 H 609.501 -0.337946 -1.39978 0
M  V30 6630 H 611.454 1.51247 -3.93322 0
M  V30 6631 H 610.178 1.80105 -2.72451 0
M  V30 6632 H 608.837 -0.113239 -3.66425 0
M  V30 6633 H 608.485 2.21097 -4.51802 0
M  V30 6634 H 608.185 1.00052 -5.79019 0
M  V30 6635 H 609.709 1.93295 -5.79197 0
M  V30 6636 H 611.123 -0.337444 -5.72306 0
M  V30 6637 H 609.52 -1.10914 -5.89761 0
M  V30 6638 H 610.59 -1.60745 -4.57481 0
M  V30 6639 N 611.933 1.52934 -0.380664 0
M  V30 6640 C 612.863 2.29118 0.450268 0
M  V30 6641 C 613.844 1.32153 1.07096 0
M  V30 6642 O 615.029 1.61038 1.08537 0
M  V30 6643 C 612.159 3.09161 1.58231 0
M  V30 6644 C 611.113 4.13938 1.0881 0
M  V30 6645 C 610.439 4.82153 2.31155 0
M  V30 6646 C 611.739 5.22048 0.162146 0
M  V30 6647 H 613.433 2.98826 -0.185361 0
M  V30 6648 H 610.979 1.43715 -0.0905886 0
M  V30 6649 H 612.932 3.61211 2.17036 0
M  V30 6650 H 611.656 2.3717 2.2454 0
M  V30 6651 H 610.315 3.62855 0.522633 0
M  V30 6652 H 609.963 4.06719 2.95953 0
M  V30 6653 H 609.663 5.52966 1.98752 0
M  V30 6654 H 611.187 5.37004 2.90618 0
M  V30 6655 H 612.601 5.6951 0.658126 0
M  V30 6656 H 610.998 6.00057 -0.0717122 0
M  V30 6657 H 612.068 4.78398 -0.791438 0
M  V30 6658 N 613.412 0.11024 1.57214 0
M  V30 6659 C 614.375 -0.828808 2.1369 0
M  V30 6660 C 615.375 -1.20059 1.06969 0
M  V30 6661 O 616.565 -1.12754 1.32786 0
M  V30 6662 C 613.697 -2.11959 2.66994 0
M  V30 6663 H 614.89 -0.338146 2.97988 0
M  V30 6664 H 612.443 -0.138913 1.55681 0
M  V30 6665 H 613.178 -2.65476 1.8626 0
M  V30 6666 H 612.963 -1.86258 3.45037 0
M  V30 6667 H 614.453 -2.79105 3.10629 0
M  V30 6668 N 614.89 -1.56749 -0.16351 0
M  V30 6669 C 615.84 -1.93424 -1.20712 0
M  V30 6670 C 616.824 -0.803469 -1.39403 0
M  V30 6671 O 618.016 -1.06675 -1.41243 0
M  V30 6672 C 615.145 -2.30431 -2.54473 0
M  V30 6673 C 614.231 -3.5004 -2.39443 0
M  V30 6674 N 614.622 -4.67058 -1.9414 0
M  V30 6675 C 612.92 -3.548 -2.70246 0
M  V30 6676 C 613.621 -5.49184 -1.9176 0
M  V30 6677 N 612.597 -4.9044 -2.34457 0
M  V30 6678 H 616.399 -2.8138 -0.848681 0
M  V30 6679 H 613.913 -1.58089 -0.371717 0
M  V30 6680 H 615.91 -2.54903 -3.29894 0
M  V30 6681 H 614.57 -1.43818 -2.91112 0
M  V30 6682 H 615.581 -4.91128 -1.64357 0
M  V30 6683 H 612.258 -2.78685 -3.10871 0
M  V30 6684 H 613.648 -6.5297 -1.58366 0
M  V30 6685 N 616.368 0.432326 -1.51554 0
M  V30 6686 C 617.616 1.17901 -1.64146 0
M  V30 6687 C 617.937 1.91604 -0.362367 0
M  V30 6688 O 617.207 1.85764 0.621968 0
M  V30 6689 H 615.787 0.438206 -0.604966 0
M  V30 6690 H 618.449 0.495172 -1.88505 0
M  V30 6691 H 617.545 1.90584 -2.47152 0
M  V30 6692 N 617.846 1.41785 0.688094 0
M  V30 6693 C 618.809 1.43936 1.78368 0
M  V30 6694 C 619.809 0.328866 1.57401 0
M  V30 6695 O 620.999 0.589093 1.63937 0
M  V30 6696 C 618.131 1.25804 3.16838 0
M  V30 6697 H 619.324 2.41472 1.77852 0
M  V30 6698 H 616.877 1.28037 0.896448 0
M  V30 6699 H 617.612 0.291386 3.22988 0
M  V30 6700 H 617.397 2.06272 3.33458 0
M  V30 6701 H 618.887 1.30162 3.96797 0
M  V30 6702 N 619.324 -0.923095 1.27737 0
M  V30 6703 C 620.601 -1.64989 1.05062 0
M  V30 6704 C 620.981 -2.07018 -0.413124 0
M  V30 6705 O 620.329 -1.80797 -1.39731 0
M  V30 6706 C 620.539 -2.84847 2.01652 0
M  V30 6707 C 621.887 -3.56083 2.31279 0
M  V30 6708 O 622.911 -2.94981 1.99662 0
M  V30 6709 O 621.77 -4.66182 2.85196 0
M  V30 6710 H 618.864 -0.723357 0.400853 0
M  V30 6711 H 621.41 -0.973224 1.3902 0
M  V30 6712 H 620.182 -2.50814 3.00347 0
M  V30 6713 H 619.805 -3.60231 1.68284 0
M  V30 6714 N 620.802 -1.09834 -1.13024 0
M  V30 6715 C 621.765 -0.745058 -2.16752 0
M  V30 6716 C 622.765 0.227435 -1.59183 0
M  V30 6717 O 623.955 0.0050786 -1.74199 0
M  V30 6718 C 621.087 -0.102543 -3.40746 0
M  V30 6719 H 622.28 -1.66375 -2.49518 0
M  V30 6720 H 619.833 -0.898061 -1.27924 0
M  V30 6721 H 620.568 0.827177 -3.13573 0
M  V30 6722 H 620.353 -0.80235 -3.83803 0
M  V30 6723 H 621.843 0.129082 -4.174 0
M  V30 6724 N 622.28 1.30327 -0.886154 0
M  V30 6725 C 623.228 2.30052 -0.343317 0
M  V30 6726 C 624.222 1.60212 0.550305 0
M  V30 6727 O 625.428 1.74674 0.434609 0
M  V30 6728 H 621.803 0.746306 -0.0923681 0
M  V30 6729 H 623.774 2.73294 -1.19804 0
M  V30 6730 C 622.523 3.45079 0.426107 0
M  V30 6731 H 621.846 3.99003 -0.25227 0
M  V30 6732 H 623.286 4.16931 0.771009 0
M  V30 6733 C 621.745 2.95195 1.62363 0
M  V30 6734 O 622.275 2.95323 2.723 0
M  V30 6735 N 620.481 2.51192 1.4612 0
M  V30 6736 H 620.028 2.51286 0.566832 0
M  V30 6737 H 619.986 2.18173 2.2638 0
M  V30 6738 N 623.758 0.647228 1.43697 0
M  V30 6739 C 625.174 0.314256 1.56476 0
M  V30 6740 C 625.374 -1.18191 1.63196 0
M  V30 6741 O 624.43 -1.96655 1.58376 0
M  V30 6742 C 625.743 1.02034 2.82859 0
M  V30 6743 C 627.291 1.00002 2.96595 0
M  V30 6744 C 627.766 1.68689 4.25803 0
M  V30 6745 N 629.257 1.65424 4.32654 0
M  V30 6746 C 629.992 2.1545 5.31384 0
M  V30 6747 N 629.488 2.73738 6.36427 0
M  V30 6748 N 631.281 2.05985 5.22998 0
M  V30 6749 H 623.432 1.61821 1.37578 0
M  V30 6750 H 625.695 0.680184 0.660344 0
M  V30 6751 H 625.401 2.07542 2.83935 0
M  V30 6752 H 625.275 0.568146 3.72897 0
M  V30 6753 H 627.662 -0.0466319 2.95063 0
M  V30 6754 H 627.743 1.49086 2.07863 0
M  V30 6755 H 627.387 2.73308 4.28095 0
M  V30 6756 H 627.317 1.17076 5.13421 0
M  V30 6757 H 629.808 1.22884 3.57363 0
M  V30 6758 H 630.121 3.09602 7.08072 0
M  V30 6759 H 628.466 2.77796 6.37067 0
M  V30 6760 H 631.657 1.60157 4.39849 0
M  V30 6761 H 631.83 2.45281 5.99784 0
M  V30 6762 N 625.236 -1.5273 0.388769 0
M  V30 6763 C 626.482 -2.01871 -0.193877 0
M  V30 6764 C 626.815 -1.27475 -1.46505 0
M  V30 6765 O 626.09 -0.375063 -1.90849 0
M  V30 6766 C 626.373 -3.5712 -0.462336 0
M  V30 6767 C 626.226 -4.42186 0.824091 0
M  V30 6768 C 627.545 -4.21881 -1.25319 0
M  V30 6769 H 624.664 -0.733764 -0.0689899 0
M  V30 6770 H 627.306 -1.82796 0.518231 0
M  V30 6771 H 625.456 -3.73504 -1.06896 0
M  V30 6772 H 627.128 -4.37554 1.46096 0
M  V30 6773 H 625.371 -4.09219 1.43952 0
M  V30 6774 H 626.042 -5.48828 0.590905 0
M  V30 6775 H 628.518 -4.0947 -0.73981 0
M  V30 6776 H 627.394 -5.30487 -1.40977 0
M  V30 6777 H 627.655 -3.79478 -2.26824 0
M  V30 6778 N 626.714 -0.118576 -1.57153 0
M  V30 6779 C 627.991 0.583062 -1.86708 0
M  V30 6780 C 628.371 1.84841 -1.01967 0
M  V30 6781 O 627.719 2.28288 -0.0984673 0
M  V30 6782 C 627.929 0.875912 -3.3783 0
M  V30 6783 C 629.277 1.22916 -4.0642 0
M  V30 6784 O 630.301 0.966188 -3.42846 0
M  V30 6785 O 629.16 1.72269 -5.18638 0
M  V30 6786 H 626.254 0.294185 -0.772906 0
M  V30 6787 H 628.8 -0.153048 -1.69008 0
M  V30 6788 H 627.572 -0.0207776 -3.91294 0
M  V30 6789 H 627.195 1.66719 -3.60958 0
M  V30 6790 N 628.193 1.56834 0.155195 0
M  V30 6791 C 629.103 2.009 1.21146 0
M  V30 6792 C 630.119 0.923029 1.475 0
M  V30 6793 O 631.295 1.23189 1.59331 0
M  V30 6794 C 628.36 2.37378 2.52691 0
M  V30 6795 C 627.421 3.59883 2.34057 0
M  V30 6796 C 626.654 3.94612 3.59329 0
M  V30 6797 O 626.877 3.30104 4.65175 0
M  V30 6798 O 625.811 4.87895 3.52479 0
M  V30 6799 H 629.637 2.9105 0.867371 0
M  V30 6800 H 627.222 1.44916 0.363298 0
M  V30 6801 H 629.104 2.61737 3.3026 0
M  V30 6802 H 627.779 1.50385 2.86646 0
M  V30 6803 H 626.686 3.40722 1.54465 0
M  V30 6804 H 628.019 4.47468 2.0502 0
M  V30 6805 N 629.671 -0.424282 1.51781 0
M  V30 6806 C 630.948 -1.18464 1.55646 0
M  V30 6807 C 631.328 -2.08529 0.328438 0
M  V30 6808 O 630.676 -2.17969 -0.685693 0
M  V30 6809 C 630.886 -1.97514 2.87731 0
M  V30 6810 C 632.234 -2.54106 3.40169 0
M  V30 6811 O 633.258 -2.07711 2.89369 0
M  V30 6812 O 632.117 -3.38759 4.28841 0
M  V30 6813 H 629.211 -0.540055 0.626314 0
M  V30 6814 H 631.757 -0.432291 1.64102 0
M  V30 6815 H 630.529 -1.31444 3.68562 0
M  V30 6816 H 630.152 -2.79787 2.82498 0
M  V30 6817 N 631.149 -1.42148 -0.680565 0
M  V30 6818 C 632.397 -1.42029 -1.43779 0
M  V30 6819 C 632.718 -0.0356347 -1.94967 0
M  V30 6820 O 631.988 0.924936 -1.7269 0
M  V30 6821 H 630.568 -0.522835 -0.533529 0
M  V30 6822 H 633.23 -1.7752 -0.804538 0
M  V30 6823 H 632.326 -2.11658 -2.29363 0
M  V30 6824 N 632.627 0.916307 -1.28225 0
M  V30 6825 C 633.873 1.66794 -1.1641 0
M  V30 6826 C 634.228 1.90278 0.284986 0
M  V30 6827 O 633.521 1.49023 1.20427 0
M  V30 6828 C 633.715 3.03125 -1.8934 0
M  V30 6829 C 633.544 2.92947 -3.41192 0
M  V30 6830 C 632.314 2.9461 -4.10528 0
M  V30 6831 C 634.512 2.7121 -4.36978 0
M  V30 6832 N 632.494 2.74993 -5.48864 0
M  V30 6833 C 633.865 2.60411 -5.6266 0
M  V30 6834 C 635.92 2.56187 -4.26934 0
M  V30 6835 C 634.623 2.3612 -6.79441 0
M  V30 6836 C 636.649 2.33275 -5.43449 0
M  V30 6837 C 636.011 2.23228 -6.68093 0
M  V30 6838 H 632.11 0.616654 -0.480896 0
M  V30 6839 H 634.694 1.08237 -1.61842 0
M  V30 6840 H 632.865 3.59774 -1.46346 0
M  V30 6841 H 634.597 3.67294 -1.69932 0
M  V30 6842 H 631.352 3.0527 -3.62087 0
M  V30 6843 H 631.776 2.68284 -6.21573 0
M  V30 6844 H 636.418 2.62707 -3.31278 0
M  V30 6845 H 634.136 2.28339 -7.75169 0
M  V30 6846 H 637.722 2.22519 -5.37565 0
M  V30 6847 H 636.602 2.05741 -7.5673 0
M  V30 6848 N 634.105 1.10431 1.1244 0
M  V30 6849 C 635.068 0.756542 2.16354 0
M  V30 6850 C 636.068 -0.21899 1.59302 0
M  V30 6851 O 637.258 0.00415969 1.742 0
M  V30 6852 C 634.39 0.120612 3.40687 0
M  V30 6853 H 635.583 1.67696 2.48632 0
M  V30 6854 H 633.136 0.904832 1.27446 0
M  V30 6855 H 633.871 -0.810536 3.14008 0
M  V30 6856 H 633.656 0.822693 3.83372 0
M  V30 6857 H 635.146 -0.106945 4.17463 0
M  V30 6858 N 635.583 -1.29855 0.893053 0
M  V30 6859 C 636.994 -1.77946 0.564998 0
M  V30 6860 C 637.345 -1.73339 -0.919134 0
M  V30 6861 O 636.47 -1.3152 -1.71847 0
M  V30 6862 C 637.065 -3.23118 1.01883 0
M  V30 6863 C 635.624 -3.69013 0.742051 0
M  V30 6864 C 634.771 -2.50121 1.19727 0
M  V30 6865 H 637.722 -1.16611 1.07646 0
M  V30 6866 H 637.743 -3.78875 0.351249 0
M  V30 6867 H 637.255 -3.26439 2.09903 0
M  V30 6868 H 635.356 -3.71173 -0.325816 0
M  V30 6869 H 635.469 -4.60117 1.33527 0
M  V30 6870 H 633.833 -2.47128 0.616418 0
M  V30 6871 H 634.616 -2.56174 2.28538 0
M  V30 6872 N 637.061 -0.65484 -1.43351 0
M  V30 6873 C 637.991 0.0221809 -2.33489 0
M  V30 6874 C 638.972 0.810272 -1.49561 0
M  V30 6875 O 640.157 0.771426 -1.78221 0
M  V30 6876 C 637.287 0.988117 -3.32947 0
M  V30 6877 C 636.241 0.310026 -4.26876 0
M  V30 6878 C 635.567 1.38752 -5.16384 0
M  V30 6879 C 636.867 -0.798589 -5.16159 0
M  V30 6880 H 638.561 -0.730571 -2.9035 0
M  V30 6881 H 636.107 -0.352773 -1.39612 0
M  V30 6882 H 638.06 1.47067 -3.94904 0
M  V30 6883 H 636.784 1.77205 -2.74346 0
M  V30 6884 H 635.443 -0.152097 -3.66284 0
M  V30 6885 H 635.091 2.16293 -4.54121 0
M  V30 6886 H 634.791 0.939051 -5.80048 0
M  V30 6887 H 636.315 1.87141 -5.81215 0
M  V30 6888 H 637.729 -0.398126 -5.71916 0
M  V30 6889 H 636.126 -1.17163 -5.88552 0
M  V30 6890 H 637.196 -1.65588 -4.55751 0
M  V30 6891 N 638.539 1.52521 -0.396863 0
M  V30 6892 C 639.489 2.2348 0.451722 0
M  V30 6893 C 640.473 1.2415 1.0235 0
M  V30 6894 O 641.665 1.4945 0.948348 0
M  V30 6895 C 638.794 3.05067 1.57445 0
M  V30 6896 C 637.88 4.11799 1.01404 0
M  V30 6897 N 638.271 5.05482 0.179234 0
M  V30 6898 C 636.569 4.27064 1.28578 0
M  V30 6899 C 637.27 5.81552 -0.131202 0
M  V30 6900 N 636.246 5.41523 0.474735 0
M  V30 6901 H 640.048 2.93269 -0.192534 0
M  V30 6902 H 637.562 1.61081 -0.206591 0
M  V30 6903 H 639.559 3.54446 2.19485 0
M  V30 6904 H 638.219 2.36816 2.22145 0
M  V30 6905 H 639.23 5.17573 -0.18411 0
M  V30 6906 H 635.907 3.70042 1.93327 0
M  V30 6907 H 637.297 6.67023 -0.808061 0
M  V30 6908 N 640.017 0.126909 1.57088 0
M  V30 6909 C 641.264 -0.529168 1.95464 0
M  V30 6910 C 641.592 -1.6618 1.01067 0
M  V30 6911 O 640.847 -1.95667 0.0360254 0
M  V30 6912 C 641.146 -1.095 3.40212 0
M  V30 6913 C 640.812 -0.0829015 4.50824 0
M  V30 6914 C 639.474 0.195377 4.80803 0
M  V30 6915 C 641.826 0.606411 5.1766 0
M  V30 6916 C 639.154 1.16912 5.74933 0
M  V30 6917 C 641.506 1.56884 6.12838 0
M  V30 6918 C 640.17 1.85502 6.41206 0
M  V30 6919 H 639.44 -0.193636 0.715252 0
M  V30 6920 H 642.087 0.209489 1.90351 0
M  V30 6921 H 640.392 -1.91058 3.42059 0
M  V30 6922 H 642.089 -1.61087 3.67222 0
M  V30 6923 H 638.679 -0.309979 4.27478 0
M  V30 6924 H 642.863 0.404597 4.94648 0
M  V30 6925 H 638.119 1.3975 5.95214 0
M  V30 6926 H 642.293 2.10859 6.6371 0
M  V30 6927 H 639.92 2.61109 7.13951 0
M  V30 6928 N 641.495 -1.56914 -0.146875 0
M  V30 6929 C 642.458 -1.97368 -1.16526 0
M  V30 6930 C 643.458 -0.860223 -1.35856 0
M  V30 6931 O 644.648 -1.12684 -1.32846 0
M  V30 6932 C 641.78 -2.28974 -2.52555 0
M  V30 6933 H 642.973 -2.88523 -0.818209 0
M  V30 6934 H 640.526 -1.5135 -0.390221 0
M  V30 6935 H 641.261 -1.40611 -2.92231 0
M  V30 6936 H 641.046 -3.10157 -2.39886 0
M  V30 6937 H 642.536 -2.61109 -3.25902 0
M  V30 6938 N 642.974 0.416227 -1.52004 0
M  V30 6939 C 643.937 1.48926 -1.74223 0
M  V30 6940 C 644.937 1.48693 -0.612119 0
M  V30 6941 O 646.127 1.50343 -0.879921 0
M  V30 6942 C 643.259 2.88372 -1.81809 0
M  V30 6943 H 644.452 1.3052 -2.70008 0
M  V30 6944 H 642.005 0.646271 -1.42313 0
M  V30 6945 H 642.74 3.12157 -0.879135 0
M  V30 6946 H 642.525 2.89944 -2.6396 0
M  V30 6947 H 644.015 3.66173 -2.00766 0
M  V30 6948 N 644.452 1.42507 0.673017 0
M  V30 6949 C 645.384 1.42074 1.79854 0
M  V30 6950 C 646.397 0.319569 1.59633 0
M  V30 6951 O 647.586 0.582769 1.68719 0
M  V30 6952 C 644.686 1.19886 3.16987 0
M  V30 6953 C 643.859 2.42471 3.64042 0
M  V30 6954 C 642.918 2.15802 4.79913 0
M  V30 6955 O 641.944 2.89015 4.90366 0
M  V30 6956 N 643.146 1.16225 5.68746 0
M  V30 6957 H 645.911 2.3909 1.8071 0
M  V30 6958 H 643.472 1.37409 0.856171 0
M  V30 6959 H 645.464 0.999591 3.92161 0
M  V30 6960 H 644.034 0.313879 3.1102 0
M  V30 6961 H 643.254 2.77954 2.79526 0
M  V30 6962 H 644.542 3.24097 3.92223 0
M  V30 6963 H 643.94 0.556756 5.62954 0
M  V30 6964 H 642.497 1.02285 6.43724 0
M  V30 6965 N 645.93 -0.909495 1.28709 0
M  V30 6966 C 646.878 -2.03381 1.12866 0
M  V30 6967 C 647.872 -1.69335 0.0468074 0
M  V30 6968 O 649.078 -1.78819 0.205891 0
M  V30 6969 H 645.453 -0.666452 0.348348 0
M  V30 6970 H 647.424 -2.13885 2.08077 0
M  V30 6971 C 646.173 -3.38092 0.811742 0
M  V30 6972 H 645.496 -3.64786 1.63619 0
M  V30 6973 H 646.936 -4.17477 0.740869 0
M  V30 6974 C 645.395 -3.33395 -0.484679 0
M  V30 6975 O 645.925 -3.72089 -1.5137 0
M  V30 6976 N 644.131 -2.86491 -0.486961 0
M  V30 6977 H 643.678 -2.55199 0.350877 0
M  V30 6978 H 643.636 -2.83731 -1.3544 0
M  V30 6979 N 647.408 -1.11026 -1.11852 0
M  V30 6980 C 648.656 -0.854769 -1.83134 0
M  V30 6981 C 648.977 0.621375 -1.84835 0
M  V30 6982 O 648.247 1.45129 -1.31584 0
M  V30 6983 H 646.827 -0.313229 -0.678157 0
M  V30 6984 H 649.489 -1.40178 -1.35411 0
M  V30 6985 H 648.585 -1.22311 -2.87135 0
M  V30 6986 N 648.886 1.2938 -0.899927 0
M  V30 6987 C 650.163 1.9046 -0.445443 0
M  V30 6988 C 650.543 1.81683 1.07492 0
M  V30 6989 O 649.891 1.24371 1.91688 0
M  V30 6990 C 650.101 3.35529 -0.960279 0
M  V30 6991 C 651.449 4.12556 -1.00412 0
M  V30 6992 O 652.473 3.44434 -0.907965 0
M  V30 6993 O 651.332 5.34294 -1.14857 0
M  V30 6994 H 648.426 0.815253 -0.138893 0
M  V30 6995 H 650.972 1.37844 -0.989808 0
M  V30 6996 H 649.744 3.36074 -2.00425 0
M  V30 6997 H 649.367 3.95624 -0.395939 0
M  V30 6998 N 650.364 0.662433 1.43002 0
M  V30 6999 C 651.641 0.109096 1.95296 0
M  V30 7000 C 652.021 -1.37313 1.60338 0
M  V30 7001 O 651.369 -2.1032 0.893187 0
M  V30 7002 C 651.579 0.365096 3.47085 0
M  V30 7003 C 652.927 0.274964 4.23709 0
M  V30 7004 O 653.951 0.29816 3.5495 0
M  V30 7005 O 652.81 0.206549 5.4611 0
M  V30 7006 H 649.904 -0.00429724 0.826989 0
M  V30 7007 H 652.45 0.736308 1.52894 0
M  V30 7008 H 651.222 1.39237 3.65689 0
M  V30 7009 H 650.845 -0.294733 3.96506 0
M  V30 7010 N 651.842 -1.52309 0.404946 0
M  V30 7011 C 653.09 -2.01368 -0.17186 0
M  V30 7012 C 653.411 -1.29261 -1.46002 0
M  V30 7013 O 652.681 -0.41729 -1.91404 0
M  V30 7014 H 651.261 -0.744034 -0.0664993 0
M  V30 7015 H 653.923 -1.87263 0.540228 0
M  V30 7016 H 653.019 -3.09888 -0.370957 0
M  V30 7017 N 653.32 -0.135238 -1.57019 0
M  V30 7018 C 654.548 0.526066 -2.001 0
M  V30 7019 C 654.963 1.59184 -1.01519 0
M  V30 7020 O 654.32 1.82497 -0.0104258 0
M  V30 7021 C 654.371 1.13744 -3.43139 0
M  V30 7022 O 654.092 0.114259 -4.37951 0
M  V30 7023 C 655.593 1.8805 -4.01438 0
M  V30 7024 H 652.813 0.137962 -0.656664 0
M  V30 7025 H 655.357 -0.226359 -2.03243 0
M  V30 7026 H 653.512 1.84056 -3.40885 0
M  V30 7027 H 653.926 0.56058 -5.21496 0
M  V30 7028 H 655.4 2.26133 -5.03555 0
M  V30 7029 H 655.877 2.76194 -3.41487 0
M  V30 7030 H 656.483 1.22464 -4.07287 0
M  V30 7031 N 654.798 1.5699 0.138552 0
M  V30 7032 C 655.761 1.97984 1.15478 0
M  V30 7033 C 656.761 0.867416 1.35398 0
M  V30 7034 O 657.951 1.13387 1.32246 0
M  V30 7035 C 655.083 2.3031 2.51337 0
M  V30 7036 H 656.276 2.88953 0.802896 0
M  V30 7037 H 653.829 1.51555 0.382189 0
M  V30 7038 H 654.564 1.42159 2.91481 0
M  V30 7039 H 654.349 3.11425 2.38237 0
M  V30 7040 H 655.839 2.62834 3.24512 0
M  V30 7041 N 656.276 -0.40816 1.52223 0
M  V30 7042 C 657.692 -0.74685 1.41047 0
M  V30 7043 C 657.892 -1.94788 0.51573 0
M  V30 7044 O 656.948 -2.52494 -0.0181156 0
M  V30 7045 C 658.261 -0.999878 2.83589 0
M  V30 7046 C 659.809 -1.10253 2.92939 0
M  V30 7047 C 660.284 -1.38832 4.36451 0
M  V30 7048 N 661.775 -1.45694 4.3969 0
M  V30 7049 C 662.51 -1.69435 5.47795 0
M  V30 7050 N 662.006 -1.90774 6.66016 0
M  V30 7051 N 663.799 -1.71458 5.35312 0
M  V30 7052 H 655.95 0.382409 2.08929 0
M  V30 7053 H 658.213 0.108807 0.941735 0
M  V30 7054 H 657.919 -0.189723 3.51188 0
M  V30 7055 H 657.793 -1.91978 3.24691 0
M  V30 7056 H 660.18 -1.90328 2.2552 0
M  V30 7057 H 660.261 -0.160973 2.55293 0
M  V30 7058 H 659.905 -0.592741 5.04429 0
M  V30 7059 H 659.835 -2.34241 4.71634 0
M  V30 7060 H 662.326 -1.3099 3.54472 0
M  V30 7061 H 662.639 -2.08342 7.44186 0
M  V30 7062 H 660.984 -1.88037 6.69079 0
M  V30 7063 H 664.175 -1.54326 4.41929 0
M  V30 7064 H 664.348 -1.89621 6.19635 0
M  V30 7065 N 657.755 -1.42862 -0.66545 0
M  V30 7066 C 658.685 -1.49867 -1.79059 0
M  V30 7067 C 659.666 -0.354394 -1.66367 0
M  V30 7068 O 660.851 -0.569969 -1.85647 0
M  V30 7069 C 657.981 -1.40943 -3.17415 0
M  V30 7070 C 656.935 -2.53495 -3.44854 0
M  V30 7071 C 656.261 -2.29626 -4.82883 0
M  V30 7072 C 657.561 -3.95781 -3.40815 0
M  V30 7073 H 659.255 -2.44037 -1.73453 0
M  V30 7074 H 656.801 -1.17456 -0.833071 0
M  V30 7075 H 658.754 -1.4445 -3.95869 0
M  V30 7076 H 657.478 -0.432716 -3.23721 0
M  V30 7077 H 656.137 -2.4932 -2.68766 0
M  V30 7078 H 655.785 -1.30226 -4.8585 0
M  V30 7079 H 655.485 -3.05065 -5.02204 0
M  V30 7080 H 657.009 -2.34897 -5.63609 0
M  V30 7081 H 658.423 -4.01508 -4.09224 0
M  V30 7082 H 656.82 -4.71148 -3.71672 0
M  V30 7083 H 657.89 -4.21786 -2.39216 0
M  V30 7084 N 659.233 0.902656 -1.29189 0
M  V30 7085 C 660.163 2.02294 -1.16616 0
M  V30 7086 C 661.144 1.6999 -0.0611175 0
M  V30 7087 O 662.329 1.9271 -0.240072 0
M  V30 7088 C 659.459 3.37018 -0.83882 0
M  V30 7089 C 658.413 3.83522 -1.89986 0
M  V30 7090 C 657.739 5.15337 -1.42589 0
M  V30 7091 C 659.039 4.04169 -3.30824 0
M  V30 7092 H 660.733 2.13071 -2.10336 0
M  V30 7093 H 658.279 1.02378 -1.01266 0
M  V30 7094 H 660.232 4.14895 -0.737584 0
M  V30 7095 H 658.956 3.26325 0.134071 0
M  V30 7096 H 657.615 3.07859 -1.99043 0
M  V30 7097 H 657.263 5.01056 -0.441759 0
M  V30 7098 H 656.963 5.47423 -2.13547 0
M  V30 7099 H 658.487 5.95758 -1.3381 0
M  V30 7100 H 659.901 4.72537 -3.24626 0
M  V30 7101 H 658.298 4.47604 -3.99713 0
M  V30 7102 H 659.368 3.08604 -3.74021 0
M  V30 7103 N 660.711 1.11618 1.11262 0
M  V30 7104 C 661.641 0.79846 2.19424 0
M  V30 7105 C 662.622 -0.234003 1.68483 0
M  V30 7106 O 663.807 -0.0970704 1.93957 0
M  V30 7107 C 660.937 0.242892 3.4645 0
M  V30 7108 C 659.891 1.20744 4.10615 0
M  V30 7109 C 659.217 0.512494 5.32238 0
M  V30 7110 C 660.517 2.55884 4.55325 0
M  V30 7111 H 662.211 1.70286 2.46258 0
M  V30 7112 H 659.757 0.820195 1.18359 0
M  V30 7113 H 661.71 0.00840447 4.21399 0
M  V30 7114 H 660.434 -0.696811 3.1908 0
M  V30 7115 H 659.093 1.42759 3.37662 0
M  V30 7116 H 658.741 -0.432075 5.01141 0
M  V30 7117 H 658.441 1.15583 5.7612 0
M  V30 7118 H 659.965 0.286842 6.09926 0
M  V30 7119 H 661.379 2.37946 5.21588 0
M  V30 7120 H 659.776 3.16216 5.10027 0
M  V30 7121 H 660.846 3.14968 3.68678 0
M  V30 7122 N 662.189 -1.289 0.906776 0
M  V30 7123 C 663.466 -1.90221 0.455537 0
M  V30 7124 C 663.846 -1.82251 -1.06527 0
M  V30 7125 O 663.194 -1.25385 -1.91026 0
M  V30 7126 C 663.404 -3.35015 0.97806 0
M  V30 7127 C 664.752 -4.12018 1.02598 0
M  V30 7128 O 665.776 -3.43947 0.926218 0
M  V30 7129 O 664.635 -5.33677 1.17689 0
M  V30 7130 H 661.729 -0.814505 0.143214 0
M  V30 7131 H 664.275 -1.37317 0.997104 0
M  V30 7132 H 663.047 -3.35006 2.02204 0
M  V30 7133 H 662.67 -3.95408 0.416914 0
M  V30 7134 N 663.667 -0.670007 -1.42649 0
M  V30 7135 C 664.617 0.0339546 -2.27975 0
M  V30 7136 C 665.601 0.778295 -1.40824 0
M  V30 7137 O 666.793 0.657997 -1.64315 0
M  V30 7138 C 663.922 0.987899 -3.28779 0
M  V30 7139 C 663.008 0.241153 -4.23414 0
M  V30 7140 N 663.399 -0.751392 -5.00188 0
M  V30 7141 C 661.697 0.480269 -4.43407 0
M  V30 7142 C 662.398 -1.19615 -5.69269 0
M  V30 7143 N 661.374 -0.527045 -5.41039 0
M  V30 7144 H 665.176 -0.727425 -2.84756 0
M  V30 7145 H 662.69 -0.498673 -1.54554 0
M  V30 7146 H 664.687 1.50716 -3.88703 0
M  V30 7147 H 663.347 1.74916 -2.73559 0
M  V30 7148 H 664.358 -1.13075 -5.05405 0
M  V30 7149 H 661.035 1.2214 -3.99234 0
M  V30 7150 H 662.425 -2.01836 -6.40868 0
M  V30 7151 N 665.145 1.52092 -0.413018 0
M  V30 7152 C 666.393 2.01456 0.161178 0
M  V30 7153 C 666.714 1.30034 1.45314 0
M  V30 7154 O 665.984 0.427435 1.9118 0
M  V30 7155 H 664.564 0.744376 0.0625526 0
M  V30 7156 H 667.226 1.86974 -0.550151 0
M  V30 7157 H 666.322 3.1008 0.354517 0
M  V30 7158 N 666.623 0.143563 1.56945 0
M  V30 7159 C 667.586 -0.783295 2.154 0
M  V30 7160 C 668.586 -1.17763 1.09492 0
M  V30 7161 O 669.776 -1.09912 1.35148 0
M  V30 7162 C 666.908 -2.06248 2.7143 0
M  V30 7163 H 668.101 -0.274863 2.98638 0
M  V30 7164 H 665.654 -0.105859 1.55941 0
M  V30 7165 H 666.389 -2.61466 1.91849 0
M  V30 7166 H 666.174 -1.78897 3.4891 0
M  V30 7167 H 667.664 -2.72453 3.16479 0
M  V30 7168 N 668.101 -1.57061 -0.130224 0
M  V30 7169 C 669.341 -1.86071 -0.845993 0
M  V30 7170 C 669.705 -0.73009 -1.77577 0
M  V30 7171 O 670.906 -0.901663 -2.53226 0
M  V30 7172 C 669.177 -3.20293 -1.58579 0
M  V30 7173 S 670.736 -3.70905 -2.34467 0
M  V30 7174 H 667.554 -0.652434 -0.282579 0
M  V30 7175 H 670.156 -1.95218 -0.10498 0
M  V30 7176 H 668.86 -4.00533 -0.894509 0
M  V30 7177 H 668.391 -3.14195 -2.36739 0
M  V30 7178 H 670.406 -3.41509 -3.59981 0
M  V30 7179 N 669.579 0.400081 -1.52437 0
M  V30 7180 C 670.825 1.14788 -1.67187 0
M  V30 7181 C 671.158 1.89928 -0.405074 0
M  V30 7182 O 670.433 1.85118 0.596804 0
M  V30 7183 C 670.716 2.13507 -2.89977 0
M  V30 7184 C 670.569 1.42204 -4.2673 0
M  V30 7185 C 671.888 3.14069 -3.083 0
M  V30 7186 H 669.007 0.415939 -0.608411 0
M  V30 7187 H 671.649 0.432542 -1.85011 0
M  V30 7188 H 669.799 2.7451 -2.74912 0
M  V30 7189 H 671.471 0.842503 -4.53541 0
M  V30 7190 H 669.714 0.723939 -4.27717 0
M  V30 7191 H 670.385 2.14281 -5.08712 0
M  V30 7192 H 672.861 2.63148 -3.22323 0
M  V30 7193 H 671.737 3.80398 -3.95713 0
M  V30 7194 H 671.998 3.82309 -2.22018 0
M  V30 7195 N 671.057 1.43213 0.657864 0
M  V30 7196 C 672.334 1.35063 1.41483 0
M  V30 7197 C 672.714 -0.0038314 2.111 0
M  V30 7198 O 672.062 -1.02018 2.04462 0
M  V30 7199 C 672.272 2.53061 2.40335 0
M  V30 7200 C 673.62 2.9594 3.04474 0
M  V30 7201 O 674.644 2.53074 2.50663 0
M  V30 7202 O 673.503 3.70184 4.02027 0
M  V30 7203 H 670.597 0.533517 0.631893 0
M  V30 7204 H 673.143 1.55253 0.685162 0
M  V30 7205 H 671.915 3.43283 1.87809 0
M  V30 7206 H 671.538 2.34945 3.20759 0
M  V30 7207 N 672.536 -0.895792 1.29666 0
M  V30 7208 C 673.499 -1.98189 1.15124 0
M  V30 7209 C 674.499 -1.60572 0.0855717 0
M  V30 7210 O 675.689 -1.70991 0.332826 0
M  V30 7211 C 672.821 -3.32289 0.761372 0
M  V30 7212 H 674.014 -2.12518 2.11603 0
M  V30 7213 H 671.567 -1.0808 1.12908 0
M  V30 7214 H 672.302 -3.23662 -0.203393 0
M  V30 7215 H 672.087 -3.60958 1.53139 0
M  V30 7216 H 673.577 -4.1198 0.682792 0
M  V30 7217 N 674.014 -1.12206 -1.10668 0
M  V30 7218 C 674.946 -0.74552 -2.16736 0
M  V30 7219 C 675.959 0.226696 -1.61214 0
M  V30 7220 O 677.148 0.0083936 -1.78498 0
M  V30 7221 C 674.248 -0.0823368 -3.388 0
M  V30 7222 C 673.421 -1.08341 -4.2377 0
M  V30 7223 C 672.48 -0.448292 -5.24287 0
M  V30 7224 O 671.506 -1.10458 -5.58379 0
M  V30 7225 N 672.708 0.785336 -5.75163 0
M  V30 7226 H 675.473 -1.65818 -2.49649 0
M  V30 7227 H 673.034 -1.01335 -1.26265 0
M  V30 7228 H 675.026 0.354476 -4.03145 0
M  V30 7229 H 673.596 0.733041 -3.03884 0
M  V30 7230 H 672.816 -1.69792 -3.55759 0
M  V30 7231 H 674.104 -1.76042 -4.77375 0
M  V30 7232 H 673.502 1.33755 -5.4966 0
M  V30 7233 H 672.059 1.16501 -6.41304 0
M  V30 7234 N 675.492 1.28418 -0.913599 0
M  V30 7235 C 676.402 2.31043 -0.406965 0
M  V30 7236 C 677.418 1.66501 0.505298 0
M  V30 7237 O 678.594 1.97558 0.391522 0
M  V30 7238 C 675.659 3.4498 0.344901 0
M  V30 7239 C 674.72 4.25078 -0.600563 0
M  V30 7240 C 673.953 5.33575 0.115516 0
M  V30 7241 O 674.176 5.54503 1.33727 0
M  V30 7242 O 673.11 5.9939 -0.549095 0
M  V30 7243 H 676.936 2.76387 -1.25873 0
M  V30 7244 H 674.521 1.33109 -0.678415 0
M  V30 7245 H 676.403 4.14314 0.769542 0
M  V30 7246 H 675.078 3.01719 1.1725 0
M  V30 7247 H 673.985 3.58334 -1.0746 0
M  V30 7248 H 675.318 4.72018 -1.39497 0
M  V30 7249 N 676.97 0.677563 1.42291 0
M  V30 7250 C 678.386 0.347376 1.55774 0
M  V30 7251 C 678.586 -1.14703 1.65667 0
M  V30 7252 O 677.642 -1.93252 1.62512 0
M  V30 7253 C 678.955 1.08011 2.80631 0
M  V30 7254 C 680.503 1.06271 2.94407 0
M  V30 7255 C 680.978 1.77683 4.22129 0
M  V30 7256 N 682.469 1.74564 4.29047 0
M  V30 7257 C 683.204 2.26673 5.26694 0
M  V30 7258 N 682.7 2.87176 6.30477 0
M  V30 7259 N 684.493 2.17032 5.18511 0
M  V30 7260 H 676.644 1.64703 1.34114 0
M  V30 7261 H 678.907 0.694038 0.645768 0
M  V30 7262 H 678.613 2.13518 2.79469 0
M  V30 7263 H 678.487 0.647115 3.71608 0
M  V30 7264 H 680.874 0.0159658 2.95096 0
M  V30 7265 H 680.955 1.53461 2.04654 0
M  V30 7266 H 680.599 2.82327 4.22201 0
M  V30 7267 H 680.529 1.2794 5.10822 0
M  V30 7268 H 683.02 1.30436 3.54676 0
M  V30 7269 H 683.333 3.24551 7.01346 0
M  V30 7270 H 681.678 2.91247 6.31031 0
M  V30 7271 H 684.869 1.69451 4.36353 0
M  V30 7272 H 685.042 2.57948 5.94446 0
M  V30 7273 N 678.448 -1.51871 0.421078 0
M  V30 7274 C 679.358 -2.31077 -0.405069 0
M  V30 7275 C 680.374 -1.39301 -1.04265 0
M  V30 7276 O 681.55 -1.72376 -1.04157 0
M  V30 7277 C 678.615 -3.12556 -1.50032 0
M  V30 7278 C 677.676 -4.20088 -0.884559 0
M  V30 7279 C 676.909 -4.97673 -1.92762 0
M  V30 7280 O 677.132 -4.75696 -3.14753 0
M  V30 7281 O 676.066 -5.82203 -1.52719 0
M  V30 7282 H 679.892 -3.02742 0.241086 0
M  V30 7283 H 677.477 -1.48263 0.183991 0
M  V30 7284 H 679.359 -3.6326 -2.13589 0
M  V30 7285 H 678.034 -2.43672 -2.13086 0
M  V30 7286 H 676.941 -3.73502 -0.211379 0
M  V30 7287 H 678.274 -4.91298 -0.297763 0
M  V30 7288 N 679.926 -0.151884 -1.56866 0
M  V30 7289 C 681.174 0.497021 -1.95893 0
M  V30 7290 C 681.495 1.65078 -1.03799 0
M  V30 7291 O 680.765 1.95642 -0.10049 0
M  V30 7292 H 679.345 0.186603 -0.723318 0
M  V30 7293 H 682.007 -0.228525 -1.93556 0
M  V30 7294 H 681.103 0.869933 -2.99731 0
M  V30 7295 N 681.404 1.57128 0.121893 0
M  V30 7296 C 682.65 1.85853 0.826451 0
M  V30 7297 C 683.005 0.739262 1.77631 0
M  V30 7298 O 682.298 -0.260959 1.89815 0
M  V30 7299 C 682.492 3.1874 1.61677 0
M  V30 7300 C 682.321 4.43487 0.744944 0
M  V30 7301 C 681.091 5.03707 0.400891 0
M  V30 7302 C 683.289 5.1426 0.0638779 0
M  V30 7303 N 681.271 6.12006 -0.481902 0
M  V30 7304 C 682.642 6.16281 -0.678033 0
M  V30 7305 C 684.697 4.97898 -0.0128424 0
M  V30 7306 C 683.4 7.0371 -1.48946 0
M  V30 7307 C 685.426 5.85812 -0.81108 0
M  V30 7308 C 684.788 6.87333 -1.54119 0
M  V30 7309 H 680.887 0.730367 0.279442 0
M  V30 7310 H 683.471 1.9449 0.0903486 0
M  V30 7311 H 681.642 3.11204 2.32393 0
M  V30 7312 H 683.374 3.35283 2.26644 0
M  V30 7313 H 680.129 4.67744 0.742469 0
M  V30 7314 H 680.553 6.70787 -0.915063 0
M  V30 7315 H 685.195 4.19372 0.537278 0
M  V30 7316 H 682.913 7.81646 -2.05074 0
M  V30 7317 H 686.499 5.75217 -0.872764 0
M  V30 7318 H 685.379 7.54182 -2.14893 0
M  V30 7319 N 682.882 -0.391992 1.52647 0
M  V30 7320 C 684.11 -1.1586 1.71418 0
M  V30 7321 C 684.525 -1.8381 0.431216 0
M  V30 7322 O 683.882 -1.7256 -0.594085 0
M  V30 7323 C 683.933 -2.20888 2.86165 0
M  V30 7324 O 683.654 -1.5571 4.09495 0
M  V30 7325 C 685.155 -3.103 3.1659 0
M  V30 7326 H 682.375 -0.347494 0.574011 0
M  V30 7327 H 684.919 -0.458972 1.99283 0
M  V30 7328 H 683.074 -2.86492 2.6077 0
M  V30 7329 H 683.488 -2.25474 4.73563 0
M  V30 7330 H 684.962 -3.8003 4.00351 0
M  V30 7331 H 685.439 -3.73639 2.30848 0
M  V30 7332 H 686.045 -2.50345 3.43813 0
M  V30 7333 N 684.36 -1.4356 -0.65026 0
M  V30 7334 C 685.771 -1.40324 -1.2315 0
M  V30 7335 C 686.122 -0.108812 -1.95898 0
M  V30 7336 O 685.247 0.79163 -2.01401 0
M  V30 7337 C 685.842 -2.54195 -2.23987 0
M  V30 7338 C 684.401 -2.54215 -2.77582 0
M  V30 7339 C 683.548 -2.31752 -1.5227 0
M  V30 7340 H 686.499 -1.52418 -0.442095 0
M  V30 7341 H 686.52 -2.25854 -3.0622 0
M  V30 7342 H 686.032 -3.48392 -1.71011 0
M  V30 7343 H 684.133 -1.63907 -3.34612 0
M  V30 7344 H 684.246 -3.52081 -3.24925 0
M  V30 7345 H 682.61 -1.80476 -1.79723 0
M  V30 7346 H 683.393 -3.28037 -1.01225 0
M  V30 7347 N 685.838 0.888903 -1.30139 0
M  V30 7348 C 686.768 2.01046 -1.18755 0
M  V30 7349 C 687.749 1.69916 -0.0791438 0
M  V30 7350 O 688.934 1.92445 -0.260498 0
M  V30 7351 C 686.064 3.36109 -0.874518 0
M  V30 7352 C 685.018 3.81486 -1.94043 0
M  V30 7353 C 684.344 5.13796 -1.48047 0
M  V30 7354 C 685.644 4.00637 -3.35093 0
M  V30 7355 H 687.338 2.10828 -2.12584 0
M  V30 7356 H 684.884 1.01298 -1.02346 0
M  V30 7357 H 686.837 4.14089 -0.781548 0
M  V30 7358 H 685.561 3.26449 0.0994519 0
M  V30 7359 H 684.22 3.05731 -2.02297 0
M  V30 7360 H 683.868 5.0056 -0.494878 0
M  V30 7361 H 683.568 5.45127 -2.19341 0
M  V30 7362 H 685.092 5.94305 -1.40121 0
M  V30 7363 H 686.506 4.69067 -3.2962 0
M  V30 7364 H 684.903 4.43339 -4.04438 0
M  V30 7365 H 685.973 3.0462 -3.77273 0
M  V30 7366 N 687.317 1.12792 1.10072 0
M  V30 7367 C 688.267 0.768086 2.14673 0
M  V30 7368 C 689.251 -0.234716 1.59179 0
M  V30 7369 O 690.443 -0.039643 1.76956 0
M  V30 7370 C 687.572 0.228472 3.42539 0
M  V30 7371 C 686.658 1.25979 4.04957 0
M  V30 7372 N 687.049 2.4586 4.42025 0
M  V30 7373 C 685.347 1.10602 4.32069 0
M  V30 7374 C 686.048 3.11747 4.9111 0
M  V30 7375 N 685.024 2.39185 4.88151 0
M  V30 7376 H 688.826 1.68029 2.4113 0
M  V30 7377 H 686.34 1.00925 1.27232 0
M  V30 7378 H 688.337 -0.0475216 4.16873 0
M  V30 7379 H 686.997 -0.678136 3.1754 0
M  V30 7380 H 688.008 2.83215 4.33601 0
M  V30 7381 H 684.685 0.257021 4.16708 0
M  V30 7382 H 686.075 4.13862 5.29309 0
M  V30 7383 N 688.795 -1.27931 0.920396 0
M  V30 7384 C 689.725 -2.29487 0.431024 0
M  V30 7385 C 690.706 -1.62435 -0.504861 0
M  V30 7386 O 691.891 -1.89797 -0.411176 0
M  V30 7387 C 689.021 -3.45788 -0.323709 0
M  V30 7388 C 687.975 -4.24784 0.523658 0
M  V30 7389 C 687.301 -5.33488 -0.359809 0
M  V30 7390 C 688.601 -4.90874 1.78437 0
M  V30 7391 H 690.295 -2.70671 1.27975 0
M  V30 7392 H 687.841 -1.30121 0.616813 0
M  V30 7393 H 689.794 -4.15927 -0.676952 0
M  V30 7394 H 688.518 -3.03502 -1.2064 0
M  V30 7395 H 687.177 -3.56382 0.85951 0
M  V30 7396 H 686.825 -4.87445 -1.24124 0
M  V30 7397 H 686.525 -5.87247 0.203605 0
M  V30 7398 H 688.049 -6.06472 -0.708787 0
M  V30 7399 H 689.463 -5.53339 1.49963 0
M  V30 7400 H 687.86 -5.54659 2.29071 0
M  V30 7401 H 688.93 -4.14988 2.50824 0
M  V30 7402 N 690.273 -0.685099 -1.4193 0
M  V30 7403 C 691.236 -0.0222632 -2.29189 0
M  V30 7404 C 692.236 0.7186 -1.4385 0
M  V30 7405 O 693.426 0.555058 -1.6512 0
M  V30 7406 C 690.558 0.979013 -3.2654 0
M  V30 7407 H 691.751 -0.790424 -2.89296 0
M  V30 7408 H 689.304 -0.448012 -1.49742 0
M  V30 7409 H 690.039 1.77531 -2.71392 0
M  V30 7410 H 689.824 0.451037 -3.89497 0
M  V30 7411 H 691.314 1.44091 -3.91954 0
M  V30 7412 N 691.751 1.51645 -0.429126 0
M  V30 7413 C 692.714 2.26116 0.374726 0
M  V30 7414 C 693.714 1.29242 0.956714 0
M  V30 7415 O 694.904 1.53022 0.832452 0
M  V30 7416 C 692.036 3.04669 1.52937 0
M  V30 7417 H 693.229 2.9861 -0.277818 0
M  V30 7418 H 690.782 1.55236 -0.182097 0
M  V30 7419 H 691.517 2.36571 2.21821 0
M  V30 7420 H 691.302 3.75814 1.11833 0
M  V30 7421 H 692.792 3.61102 2.09751 0
M  V30 7422 N 693.229 0.160201 1.56784 0
M  V30 7423 C 694.161 -0.80564 2.14574 0
M  V30 7424 C 695.174 -1.20154 1.09849 0
M  V30 7425 O 696.363 -1.14333 1.37078 0
M  V30 7426 C 693.463 -2.09434 2.6644 0
M  V30 7427 C 692.636 -1.86375 3.95706 0
M  V30 7428 C 691.695 -2.99358 4.32749 0
M  V30 7429 O 690.721 -2.70475 5.00831 0
M  V30 7430 N 691.923 -4.26867 3.93402 0
M  V30 7431 H 694.688 -0.311644 2.98075 0
M  V30 7432 H 692.249 -0.0229465 1.61884 0
M  V30 7433 H 694.241 -2.84091 2.88226 0
M  V30 7434 H 692.811 -2.50057 1.8759 0
M  V30 7435 H 692.031 -0.956821 3.82412 0
M  V30 7436 H 693.319 -1.68322 4.80151 0
M  V30 7437 H 692.717 -4.53197 3.38569 0
M  V30 7438 H 691.274 -4.98263 4.20211 0
M  V30 7439 N 694.707 -1.5719 -0.113559 0
M  V30 7440 C 695.655 -2.01725 -1.158 0
M  V30 7441 C 696.649 -0.915105 -1.42556 0
M  V30 7442 O 697.855 -1.10031 -1.42454 0
M  V30 7443 H 694.23 -0.64262 -0.390569 0
M  V30 7444 H 696.201 -2.88666 -0.755926 0
M  V30 7445 C 694.95 -2.44203 -2.47507 0
M  V30 7446 H 694.273 -3.28582 -2.27758 0
M  V30 7447 H 695.713 -2.79158 -3.19135 0
M  V30 7448 C 694.172 -1.30785 -3.10478 0
M  V30 7449 O 694.702 -0.626807 -3.9678 0
M  V30 7450 N 692.908 -1.06352 -2.7044 0
M  V30 7451 H 692.455 -1.61913 -2.00355 0
M  V30 7452 H 692.413 -0.306614 -3.12901 0
M  V30 7453 N 696.185 0.383891 -1.52853 0
M  V30 7454 C 697.133 1.48965 -1.7864 0
M  V30 7455 C 698.127 1.56242 -0.654577 0
M  V30 7456 O 699.333 1.59347 -0.83716 0
M  V30 7457 H 695.708 0.495892 -0.565328 0
M  V30 7458 H 697.679 1.24411 -2.71228 0
M  V30 7459 C 696.428 2.86036 -1.97683 0
M  V30 7460 H 695.751 2.81188 -2.84206 0
M  V30 7461 H 697.191 3.62632 -2.19713 0
M  V30 7462 C 695.65 3.28428 -0.750776 0
M  V30 7463 O 696.18 4.0164 0.0693491 0
M  V30 7464 N 694.386 2.84765 -0.579427 0
M  V30 7465 H 693.933 2.25353 -1.24795 0
M  V30 7466 H 693.891 3.13486 0.239544 0
M  V30 7467 N 697.663 1.43903 0.642637 0
M  V30 7468 C 698.91 1.46079 1.40239 0
M  V30 7469 C 699.238 0.0890335 1.94296 0
M  V30 7470 O 698.493 -0.907533 1.73385 0
M  V30 7471 C 698.792 2.45907 2.59354 0
M  V30 7472 C 698.458 3.91522 2.23654 0
M  V30 7473 C 697.12 4.31179 2.1363 0
M  V30 7474 C 699.472 4.83242 1.95261 0
M  V30 7475 C 696.8 5.60495 1.73384 0
M  V30 7476 C 699.152 6.12933 1.56511 0
M  V30 7477 C 697.816 6.51556 1.4502 0
M  V30 7478 H 697.086 0.534542 0.513172 0
M  V30 7479 H 699.733 1.77047 0.72984 0
M  V30 7480 H 698.038 2.08381 3.3179 0
M  V30 7481 H 699.735 2.44842 3.17574 0
M  V30 7482 H 696.325 3.60142 2.32369 0
M  V30 7483 H 700.509 4.53367 2.0192 0
M  V30 7484 H 695.765 5.89249 1.63082 0
M  V30 7485 H 699.939 6.83469 1.33576 0
M  V30 7486 H 697.566 7.51663 1.13606 0
M  V30 7487 N 699.141 -0.881989 1.30609 0
M  V30 7488 C 700.051 -2.02076 1.19174 0
M  V30 7489 C 701.067 -1.73645 0.11102 0
M  V30 7490 O 702.243 -1.98735 0.326528 0
M  V30 7491 C 699.308 -3.3515 0.887438 0
M  V30 7492 C 698.369 -3.76983 2.05383 0
M  V30 7493 C 697.602 -5.03707 1.76395 0
M  V30 7494 O 697.825 -5.66171 0.693302 0
M  V30 7495 O 696.759 -5.42019 2.61723 0
M  V30 7496 H 700.585 -2.14652 2.14845 0
M  V30 7497 H 698.17 -1.00843 1.10232 0
M  V30 7498 H 700.052 -4.14975 0.73306 0
M  V30 7499 H 698.727 -3.23676 -0.0393354 0
M  V30 7500 H 697.634 -2.97849 2.26355 0
M  V30 7501 H 698.967 -3.93066 2.96243 0
M  V30 7502 N 700.619 -1.13374 -1.09472 0
M  V30 7503 C 701.567 -0.806105 -2.18185 0
M  V30 7504 C 702.561 0.21136 -1.68076 0
M  V30 7505 O 703.767 0.0685558 -1.79869 0
M  V30 7506 H 700.142 -0.242901 -0.71169 0
M  V30 7507 H 702.113 -1.73115 -2.43051 0
M  V30 7508 C 700.862 -0.287928 -3.46506 0
M  V30 7509 H 700.185 -1.06217 -3.85432 0
M  V30 7510 H 701.625 -0.0971054 -4.23889 0
M  V30 7511 C 700.084 0.986256 -3.22141 0
M  V30 7512 O 700.614 2.06217 -3.44728 0
M  V30 7513 N 698.82 0.917153 -2.75747 0
M  V30 7514 H 698.367 0.0414609 -2.57567 0
M  V30 7515 H 698.325 1.77029 -2.59823 0
M  V30 7516 N 702.098 1.27442 -0.927168 0
M  V30 7517 C 703.344 1.94679 -0.568164 0
M  V30 7518 C 703.677 1.72697 0.888219 0
M  V30 7519 O 702.952 1.05573 1.63354 0
M  V30 7520 C 703.235 3.4882 -0.894253 0
M  V30 7521 C 703.088 3.80146 -2.40435 0
M  V30 7522 C 704.407 4.38281 -0.399766 0
M  V30 7523 H 701.526 0.707071 -0.207892 0
M  V30 7524 H 704.168 1.50568 -1.15885 0
M  V30 7525 H 702.318 3.86522 -0.391566 0
M  V30 7526 H 703.99 3.52238 -2.97869 0
M  V30 7527 H 702.233 3.26716 -2.85375 0
M  V30 7528 H 702.904 4.87835 -2.58304 0
M  V30 7529 H 705.38 4.07726 -0.83058 0
M  V30 7530 H 704.256 5.44955 -0.656885 0
M  V30 7531 H 704.517 4.36521 0.700153 0
M  V30 7532 N 703.576 0.692616 1.41565 0
M  V30 7533 C 704.539 0.0344174 2.29174 0
M  V30 7534 C 705.539 -0.710961 1.44229 0
M  V30 7535 O 706.729 -0.546293 1.65412 0
M  V30 7536 C 703.861 -0.961682 3.27054 0
M  V30 7537 H 705.054 0.805755 2.88873 0
M  V30 7538 H 702.607 0.455947 1.49502 0
M  V30 7539 H 703.342 -1.76089 2.72329 0
M  V30 7540 H 703.127 -0.430375 3.89731 0
M  V30 7541 H 704.617 -1.4201 3.92712 0
M  V30 7542 N 705.054 -1.51416 0.437162 0
M  V30 7543 C 706.47 -1.59349 0.0894459 0
M  V30 7544 C 706.67 -1.44809 -1.40116 0
M  V30 7545 O 705.726 -1.28924 -2.17106 0
M  V30 7546 C 707.039 -2.9446 0.609398 0
M  V30 7547 C 708.587 -3.07769 0.569824 0
M  V30 7548 C 709.062 -4.45404 1.06675 0
M  V30 7549 N 710.553 -4.51723 1.02473 0
M  V30 7550 C 711.288 -5.56544 1.3801 0
M  V30 7551 N 710.784 -6.68784 1.80831 0
M  V30 7552 N 712.577 -5.46901 1.29828 0
M  V30 7553 H 704.728 -1.59112 1.40703 0
M  V30 7554 H 706.991 -0.750031 0.579791 0
M  V30 7555 H 706.697 -3.1047 1.65231 0
M  V30 7556 H 706.571 -3.77184 0.0342236 0
M  V30 7557 H 708.958 -2.91428 -0.464107 0
M  V30 7558 H 709.039 -2.26885 1.1814 0
M  V30 7559 H 708.683 -4.62492 2.09914 0
M  V30 7560 H 708.613 -5.24827 0.431712 0
M  V30 7561 H 711.104 -3.71165 0.710258 0
M  V30 7562 H 711.417 -7.44787 2.06185 0
M  V30 7563 H 709.762 -6.69992 1.84757 0
M  V30 7564 H 712.953 -4.581 0.962397 0
M  V30 7565 H 713.126 -6.2848 1.57851 0
M  V30 7566 N 706.532 -0.168513 -1.56696 0
M  V30 7567 C 707.462 0.758563 -2.20835 0
M  V30 7568 C 708.443 1.24121 -1.1631 0
M  V30 7569 O 709.628 1.29487 -1.4473 0
M  V30 7570 C 706.758 1.9892 -2.8469 0
M  V30 7571 C 705.712 1.64252 -3.95228 0
M  V30 7572 C 705.038 2.94757 -4.46119 0
M  V30 7573 C 706.338 0.872675 -5.14958 0
M  V30 7574 H 708.032 0.223953 -2.98561 0
M  V30 7575 H 705.578 0.106277 -1.43607 0
M  V30 7576 H 707.531 2.64275 -3.28233 0
M  V30 7577 H 706.255 2.5479 -2.04327 0
M  V30 7578 H 704.914 1.01266 -3.52336 0
M  V30 7579 H 704.562 3.48662 -3.62552 0
M  V30 7580 H 704.262 2.72316 -5.2069 0
M  V30 7581 H 705.786 3.61147 -4.92347 0
M  V30 7582 H 707.2 1.42875 -5.55211 0
M  V30 7583 H 705.597 0.747402 -5.95428 0
M  V30 7584 H 706.667 -0.131535 -4.84722 0
M  V30 7585 N 708.01 1.57248 0.105221 0
M  V30 7586 C 708.94 2.04374 1.12931 0
M  V30 7587 C 709.921 0.93074 1.42377 0
M  V30 7588 O 711.106 1.20136 1.52581 0
M  V30 7589 C 708.236 2.45967 2.45189 0
M  V30 7590 C 707.19 3.60838 2.30174 0
M  V30 7591 C 706.516 3.88374 3.67518 0
M  V30 7592 C 707.816 4.92084 1.75073 0
M  V30 7593 H 709.51 2.9018 0.737287 0
M  V30 7594 H 707.056 1.39601 0.353211 0
M  V30 7595 H 709.009 2.77542 3.17094 0
M  V30 7596 H 707.733 1.57148 2.86308 0
M  V30 7597 H 706.392 3.29493 1.60716 0
M  V30 7598 H 706.04 2.96739 4.06147 0
M  V30 7599 H 705.74 4.65703 3.58321 0
M  V30 7600 H 707.264 4.22415 4.40906 0
M  V30 7601 H 708.678 5.22106 2.36809 0
M  V30 7602 H 707.075 5.73507 1.76662 0
M  V30 7603 H 708.145 4.79684 0.709347 0
M  V30 7604 N 709.488 -0.375779 1.53054 0
M  V30 7605 C 710.734 -1.12114 1.68992 0
M  V30 7606 C 711.067 -1.8926 0.435238 0
M  V30 7607 O 710.342 -1.86044 -0.567278 0
M  V30 7608 C 710.625 -2.08867 2.93337 0
M  V30 7609 C 710.478 -1.35397 4.28938 0
M  V30 7610 C 711.797 -3.09124 3.13257 0
M  V30 7611 H 708.916 -0.406207 0.614951 0
M  V30 7612 H 711.558 -0.403054 1.85676 0
M  V30 7613 H 709.708 -2.70102 2.79244 0
M  V30 7614 H 711.38 -0.770242 4.54824 0
M  V30 7615 H 709.623 -0.655801 4.28814 0
M  V30 7616 H 710.294 -2.06161 5.12056 0
M  V30 7617 H 712.77 -2.57987 3.26469 0
M  V30 7618 H 711.646 -3.74054 4.01715 0
M  V30 7619 H 711.907 -3.78729 2.28072 0
M  V30 7620 N 710.966 -1.44241 -0.634997 0
M  V30 7621 C 712.191 -1.50516 -1.42687 0
M  V30 7622 C 712.616 -0.129864 -1.87651 0
M  V30 7623 O 711.974 0.880164 -1.58502 0
M  V30 7624 C 712.022 -2.4714 -2.62591 0
M  V30 7625 O 711.126 -1.97025 -3.62291 0
M  V30 7626 H 710.467 -0.50841 -0.427101 0
M  V30 7627 H 712.997 -1.89337 -0.775408 0
M  V30 7628 H 713.007 -2.65048 -3.10183 0
M  V30 7629 H 711.682 -3.47039 -2.29209 0
M  V30 7630 H 710.259 -1.88866 -3.21534 0
M  V30 7631 N 712.444 0.87505 -1.31075 0
M  V30 7632 C 713.86 1.15997 -1.09622 0
M  V30 7633 C 714.06 2.01036 0.136611 0
M  V30 7634 O 713.116 2.38559 0.827397 0
M  V30 7635 C 714.429 1.85702 -2.36506 0
M  V30 7636 C 715.977 1.98425 -2.42067 0
M  V30 7637 C 716.452 2.71544 -3.68819 0
M  V30 7638 N 717.943 2.79084 -3.69684 0
M  V30 7639 C 718.678 3.36259 -4.64454 0
M  V30 7640 N 718.174 3.94406 -5.69575 0
M  V30 7641 N 719.967 3.34169 -4.51982 0
M  V30 7642 H 712.118 0.308258 -2.10151 0
M  V30 7643 H 714.381 0.199145 -0.926847 0
M  V30 7644 H 714.087 1.30663 -3.26527 0
M  V30 7645 H 713.961 2.86017 -2.45915 0
M  V30 7646 H 716.348 2.5263 -1.52518 0
M  V30 7647 H 716.429 0.971682 -2.36626 0
M  V30 7648 H 716.073 2.18008 -4.58732 0
M  V30 7649 H 716.003 3.73198 -3.71525 0
M  V30 7650 H 718.494 2.3781 -2.93691 0
M  V30 7651 H 718.807 4.36129 -6.37974 0
M  V30 7652 H 717.152 3.92797 -5.73355 0
M  V30 7653 H 720.343 2.87977 -3.69035 0
M  V30 7654 H 720.516 3.78431 -5.26017 0
M  V30 7655 N 713.922 1.13953 1.08869 0
M  V30 7656 C 714.854 0.779906 2.15523 0
M  V30 7657 C 715.867 -0.20102 1.61554 0
M  V30 7658 O 717.056 0.0200049 1.78489 0
M  V30 7659 C 714.156 0.136226 3.38626 0
M  V30 7660 C 713.329 1.15069 4.21993 0
M  V30 7661 C 712.388 0.531645 5.23507 0
M  V30 7662 O 711.414 1.19327 5.56552 0
M  V30 7663 N 712.616 -0.693734 5.7634 0
M  V30 7664 H 715.381 1.69769 2.46979 0
M  V30 7665 H 712.942 1.03331 1.24637 0
M  V30 7666 H 714.934 -0.290295 4.03658 0
M  V30 7667 H 713.504 -0.684603 3.05011 0
M  V30 7668 H 712.724 1.75431 3.53012 0
M  V30 7669 H 714.012 1.83614 4.74514 0
M  V30 7670 H 713.41 -1.24994 5.51718 0
M  V30 7671 H 711.967 -1.06283 6.43076 0
M  V30 7672 N 715.4 -1.26948 0.933913 0
M  V30 7673 C 716.363 -2.24889 0.442457 0
M  V30 7674 C 717.363 -1.54594 -0.442426 0
M  V30 7675 O 718.553 -1.72502 -0.242629 0
M  V30 7676 C 715.685 -3.3896 -0.363173 0
M  V30 7677 H 716.878 -2.69879 1.30787 0
M  V30 7678 H 714.431 -1.38978 0.715187 0
M  V30 7679 H 715.166 -2.99361 -1.24714 0
M  V30 7680 H 714.951 -3.9116 0.271366 0
M  V30 7681 H 716.441 -4.11739 -0.697186 0
M  V30 7682 N 716.879 -0.700114 -1.41195 0
M  V30 7683 C 718.156 -0.160836 -1.94938 0
M  V30 7684 C 718.536 1.33014 -1.63922 0
M  V30 7685 O 717.884 2.07878 -0.948636 0
M  V30 7686 C 718.094 -0.456991 -3.45995 0
M  V30 7687 C 719.442 -0.387207 -4.22831 0
M  V30 7688 O 720.466 -0.392164 -3.54035 0
M  V30 7689 O 719.325 -0.351267 -5.4537 0
M  V30 7690 H 716.419 -0.0176304 -0.826812 0
M  V30 7691 H 718.965 -0.776586 -1.50888 0
M  V30 7692 H 717.737 -1.48884 -3.61869 0
M  V30 7693 H 717.36 0.189503 -3.97148 0
M  V30 7694 N 718.357 1.51182 -0.445186 0
M  V30 7695 C 719.768 1.86693 0.0160999 0
M  V30 7696 C 720.119 1.36183 1.4124 0
M  V30 7697 O 719.244 0.715895 2.04215 0
M  V30 7698 C 719.839 3.38781 0.0359918 0
M  V30 7699 C 718.398 3.73799 0.441715 0
M  V30 7700 C 717.545 2.74947 -0.360511 0
M  V30 7701 H 720.496 1.44294 -0.660674 0
M  V30 7702 H 720.517 3.71026 0.843813 0
M  V30 7703 H 720.029 3.75513 -0.980378 0
M  V30 7704 H 718.13 3.42659 1.4634 0
M  V30 7705 H 718.243 4.78829 0.16106 0
M  V30 7706 H 716.607 2.54047 0.182269 0
M  V30 7707 H 717.39 3.14521 -1.3759 0
M  V30 7708 N 719.835 0.176821 1.56605 0
M  V30 7709 C 720.783 -0.768159 2.1955 0
M  V30 7710 C 721.777 -1.23343 1.16116 0
M  V30 7711 O 722.983 -1.19844 1.34303 0
M  V30 7712 H 719.358 -0.266013 0.703378 0
M  V30 7713 H 721.329 -0.213374 2.97636 0
M  V30 7714 C 720.078 -1.98492 2.85475 0
M  V30 7715 H 719.401 -1.63595 3.64797 0
M  V30 7716 H 720.841 -2.62489 3.3298 0
M  V30 7717 C 719.3 -2.81207 1.85538 0
M  V30 7718 O 719.83 -3.7854 1.34427 0
M  V30 7719 N 718.036 -2.46331 1.54173 0
M  V30 7720 H 717.583 -1.67241 1.95929 0
M  V30 7721 H 717.541 -3.01961 0.875595 0
M  V30 7722 N 721.313 -1.57302 -0.09688 0
M  V30 7723 C 722.243 -2.0497 -1.11846 0
M  V30 7724 C 723.224 -0.938278 -1.41882 0
M  V30 7725 O 724.409 -1.20943 -1.51942 0
M  V30 7726 C 721.539 -2.47264 -2.43881 0
M  V30 7727 C 720.493 -3.62053 -2.28257 0
M  V30 7728 C 719.819 -3.90318 -3.65453 0
M  V30 7729 C 721.119 -4.93005 -1.72461 0
M  V30 7730 H 722.813 -2.90567 -0.721888 0
M  V30 7731 H 720.359 -1.39786 -0.345803 0
M  V30 7732 H 722.312 -2.7922 -3.15617 0
M  V30 7733 H 721.036 -1.58664 -2.8547 0
M  V30 7734 H 719.695 -3.30341 -1.58967 0
M  V30 7735 H 719.343 -2.98889 -4.04567 0
M  V30 7736 H 719.043 -4.67597 -3.55846 0
M  V30 7737 H 720.567 -4.24747 -4.3866 0
M  V30 7738 H 721.981 -5.23354 -2.34036 0
M  V30 7739 H 720.378 -5.74436 -1.73618 0
M  V30 7740 H 721.448 -4.80053 -0.683898 0
M  V30 7741 N 722.791 0.367657 -1.53252 0
M  V30 7742 C 723.741 1.45035 -1.75923 0
M  V30 7743 C 724.725 1.48736 -0.613719 0
M  V30 7744 O 725.917 1.54012 -0.872313 0
M  V30 7745 C 723.046 2.82493 -1.9507 0
M  V30 7746 C 722.132 2.83279 -3.15617 0
M  V30 7747 N 722.523 2.53712 -4.37566 0
M  V30 7748 C 720.821 3.1444 -3.16297 0
M  V30 7749 C 721.522 2.62123 -5.19294 0
M  V30 7750 N 720.498 2.96747 -4.55458 0
M  V30 7751 H 724.3 1.21035 -2.6782 0
M  V30 7752 H 721.814 0.575822 -1.51849 0
M  V30 7753 H 723.811 3.60473 -2.0944 0
M  V30 7754 H 722.471 3.07459 -1.044 0
M  V30 7755 H 723.482 2.27344 -4.65333 0
M  V30 7756 H 720.159 3.44733 -2.35511 0
M  V30 7757 H 721.549 2.42628 -6.26563 0
M  V30 7758 N 724.269 1.44576 0.627338 0
M  V30 7759 C 725.179 1.54232 1.76776 0
M  V30 7760 C 726.195 0.427782 1.6866 0
M  V30 7761 O 727.371 0.685671 1.89369 0
M  V30 7762 C 724.436 1.48738 3.13174 0
M  V30 7763 C 723.497 2.71074 3.32893 0
M  V30 7764 C 722.73 2.65832 4.62784 0
M  V30 7765 O 722.953 1.72048 5.43834 0
M  V30 7766 O 721.887 3.56742 4.84787 0
M  V30 7767 H 725.713 2.50586 1.71582 0
M  V30 7768 H 723.298 1.26865 0.789028 0
M  V30 7769 H 725.18 1.48211 3.94476 0
M  V30 7770 H 723.855 0.555292 3.18902 0
M  V30 7771 H 722.762 2.77168 2.51254 0
M  V30 7772 H 724.095 3.63342 3.32029 0
M  V30 7773 N 725.747 -0.868086 1.31537 0
M  V30 7774 C 726.71 -1.95703 1.19302 0
M  V30 7775 C 727.71 -1.60355 0.119612 0
M  V30 7776 O 728.9 -1.70247 0.36902 0
M  V30 7777 C 726.032 -3.30599 0.831684 0
M  V30 7778 H 727.225 -2.07982 2.16064 0
M  V30 7779 H 724.778 -1.05661 1.15176 0
M  V30 7780 H 725.513 -3.2402 -0.134694 0
M  V30 7781 H 725.298 -3.57629 1.60761 0
M  V30 7782 H 726.788 -4.10439 0.770026 0
M  V30 7783 N 727.225 -1.14528 -1.08264 0
M  V30 7784 C 728.135 -0.84728 -2.18765 0
M  V30 7785 C 729.151 0.172826 -1.7314 0
M  V30 7786 O 730.327 0.000985336 -2.014 0
M  V30 7787 C 727.392 -0.330633 -3.4512 0
M  V30 7788 C 726.453 -1.41348 -4.05363 0
M  V30 7789 C 725.686 -0.921387 -5.25686 0
M  V30 7790 O 725.909 0.236587 -5.69909 0
M  V30 7791 O 724.843 -1.70101 -5.77364 0
M  V30 7792 H 728.669 -1.7708 -2.46731 0
M  V30 7793 H 726.254 -0.923661 -1.17426 0
M  V30 7794 H 728.136 -0.0485053 -4.21372 0
M  V30 7795 H 726.811 0.565147 -3.18728 0
M  V30 7796 H 725.718 -1.74908 -3.30693 0
M  V30 7797 H 727.051 -2.28383 -4.36007 0
M  V30 7798 N 728.703 1.26451 -0.940633 0
M  V30 7799 C 729.951 1.93395 -0.586748 0
M  V30 7800 C 730.272 1.7417 0.876921 0
M  V30 7801 O 729.542 1.097 1.62304 0
M  V30 7802 H 728.122 0.715687 -0.214012 0
M  V30 7803 H 730.784 1.53902 -1.19584 0
M  V30 7804 H 729.88 3.01565 -0.804059 0
M  V30 7805 N 730.181 0.707592 1.40822 0
M  V30 7806 C 731.128 0.0499029 2.30746 0
M  V30 7807 C 732.098 -0.758718 1.47759 0
M  V30 7808 O 733.283 -0.724299 1.76518 0
M  V30 7809 C 730.423 -0.871756 3.33908 0
M  V30 7810 C 729.536 -0.0534655 4.31967 0
M  V30 7811 C 728.671 -0.973869 5.22197 0
M  V30 7812 C 727.71 -0.149194 6.11918 0
M  V30 7813 N 726.847 -1.02404 6.94592 0
M  V30 7814 H 731.687 0.822461 2.86426 0
M  V30 7815 H 729.224 0.417285 1.41057 0
M  V30 7816 H 731.182 -1.42028 3.9228 0
M  V30 7817 H 729.812 -1.61058 2.7975 0
M  V30 7818 H 728.864 0.612142 3.75442 0
M  V30 7819 H 730.176 0.585354 4.95353 0
M  V30 7820 H 729.33 -1.59121 5.85462 0
M  V30 7821 H 728.069 -1.64652 4.59065 0
M  V30 7822 H 727.074 0.481137 5.47691 0
M  V30 7823 H 728.299 0.519841 6.77107 0
M  V30 7824 H 726.245 -1.6825 6.34057 0
M  V30 7825 H 726.162 -0.441076 7.54712 0
M  V30 7826 H 727.43 -1.62782 7.62314 0
M  V30 7827 N 731.66 -1.50943 0.453197 0
M  V30 7828 C 732.888 -2.06628 -0.106135 0
M  V30 7829 C 733.303 -1.31901 -1.35084 0
M  V30 7830 O 732.66 -0.383074 -1.78434 0
M  V30 7831 C 732.711 -3.5914 -0.412368 0
M  V30 7832 O 732.432 -4.31047 0.782948 0
M  V30 7833 C 733.933 -4.31391 -1.02064 0
M  V30 7834 H 731.153 -0.670999 -0.000885896 0
M  V30 7835 H 733.697 -1.94331 0.63684 0
M  V30 7836 H 731.852 -3.71299 -1.10526 0
M  V30 7837 H 732.266 -5.21948 0.516736 0
M  V30 7838 H 733.74 -5.39135 -1.1848 0
M  V30 7839 H 734.217 -3.90714 -2.00598 0
M  V30 7840 H 734.823 -4.23716 -0.366664 0
M  V30 7841 N 733.138 -0.185124 -1.56509 0
M  V30 7842 C 734.549 0.329221 -1.83774 0
M  V30 7843 C 734.9 1.62093 -1.10545 0
M  V30 7844 O 734.025 2.13334 -0.36298 0
M  V30 7845 C 734.62 0.604099 -3.33371 0
M  V30 7846 C 733.179 1.06284 -3.61083 0
M  V30 7847 C 732.326 0.10608 -2.77097 0
M  V30 7848 H 735.277 -0.409116 -1.53336 0
M  V30 7849 H 735.298 1.45458 -3.51599 0
M  V30 7850 H 734.81 -0.336201 -3.86641 0
M  V30 7851 H 732.911 2.01777 -3.13236 0
M  V30 7852 H 733.024 0.962453 -4.69333 0
M  V30 7853 H 731.388 0.606082 -2.47384 0
M  V30 7854 H 732.171 -0.828486 -3.33153 0
M  V30 7855 N 734.616 1.57351 0.0885366 0
M  V30 7856 C 735.546 2.05561 1.10757 0
M  V30 7857 C 736.527 0.945789 1.41382 0
M  V30 7858 O 737.712 1.21747 1.51299 0
M  V30 7859 C 734.842 2.48554 2.42566 0
M  V30 7860 C 733.796 3.63259 2.26334 0
M  V30 7861 C 733.122 3.9225 3.63378 0
M  V30 7862 C 734.422 4.93913 1.69844 0
M  V30 7863 H 736.116 2.90946 0.706468 0
M  V30 7864 H 733.662 1.39968 0.338385 0
M  V30 7865 H 735.615 2.8089 3.14132 0
M  V30 7866 H 734.339 1.60176 2.84625 0
M  V30 7867 H 732.998 3.31179 1.57213 0
M  V30 7868 H 732.646 3.0103 4.02976 0
M  V30 7869 H 732.346 4.69478 3.53362 0
M  V30 7870 H 733.87 4.27067 4.36401 0
M  V30 7871 H 735.284 5.24588 2.31258 0
M  V30 7872 H 733.681 5.75349 1.70569 0
M  V30 7873 H 734.751 4.80409 0.65843 0
M  V30 7874 N 736.094 -0.359525 1.53444 0
M  V30 7875 C 737.044 -1.441 1.7669 0
M  V30 7876 C 738.028 -1.48408 0.621599 0
M  V30 7877 O 739.22 -1.53547 0.880468 0
M  V30 7878 C 736.349 -2.81455 1.96566 0
M  V30 7879 C 735.435 -2.81601 3.17115 0
M  V30 7880 N 735.826 -2.51388 4.38905 0
M  V30 7881 C 734.124 -3.12758 3.1796 0
M  V30 7882 C 734.825 -2.59365 5.20677 0
M  V30 7883 N 733.801 -2.94328 4.57025 0
M  V30 7884 H 737.603 -1.19613 2.68458 0
M  V30 7885 H 735.117 -0.567761 1.52152 0
M  V30 7886 H 737.114 -3.59357 2.11348 0
M  V30 7887 H 735.774 -3.06901 1.06029 0
M  V30 7888 H 736.785 -2.24873 4.66533 0
M  V30 7889 H 733.462 -3.43479 2.37336 0
M  V30 7890 H 734.852 -2.39301 6.27841 0
M  V30 7891 N 737.572 -1.44907 -0.619662 0
M  V30 7892 C 738.818 -1.48512 -1.38102 0
M  V30 7893 C 739.151 -0.121686 -1.93818 0
M  V30 7894 O 738.426 0.862256 -1.74343 0
M  V30 7895 C 738.709 -2.55469 -2.53787 0
M  V30 7896 C 738.562 -4.01212 -2.03345 0
M  V30 7897 C 739.881 -2.58821 -3.55949 0
M  V30 7898 H 737 -0.540712 -0.500799 0
M  V30 7899 H 739.642 -1.7665 -0.69962 0
M  V30 7900 H 737.792 -2.31606 -3.11915 0
M  V30 7901 H 739.464 -4.36245 -1.49959 0
M  V30 7902 H 737.707 -4.12443 -1.34438 0
M  V30 7903 H 738.378 -4.71717 -2.86683 0
M  V30 7904 H 740.854 -2.80172 -3.07641 0
M  V30 7905 H 739.73 -3.35542 -4.34399 0
M  V30 7906 H 739.991 -1.63451 -4.10775 0
M  V30 7907 N 739.05 0.861098 -1.31996 0
M  V30 7908 C 740.013 1.95068 -1.20338 0
M  V30 7909 C 741.013 1.60289 -0.128114 0
M  V30 7910 O 742.203 1.70048 -0.378044 0
M  V30 7911 C 739.335 3.30153 -0.849205 0
M  V30 7912 H 740.528 2.06833 -2.17164 0
M  V30 7913 H 738.081 1.05049 -1.15734 0
M  V30 7914 H 738.816 3.24087 0.117508 0
M  V30 7915 H 738.601 3.56771 -1.62655 0
M  V30 7916 H 740.091 4.10025 -0.791782 0
M  V30 7917 N 740.528 1.15101 1.07655 0
M  V30 7918 C 741.491 0.847625 2.12951 0
M  V30 7919 C 742.491 -0.151227 1.60087 0
M  V30 7920 O 743.681 0.0780399 1.74025 0
M  V30 7921 C 740.813 0.265 3.39868 0
M  V30 7922 H 742.006 1.7809 2.41296 0
M  V30 7923 H 739.559 0.958072 1.23494 0
M  V30 7924 H 740.294 -0.676625 3.17163 0
M  V30 7925 H 740.079 0.984554 3.79538 0
M  V30 7926 H 741.569 0.0702121 4.17541 0
M  V30 7927 N 742.006 -1.2595 0.947325 0
M  V30 7928 C 743.236 -1.97258 0.614235 0
M  V30 7929 C 743.644 -1.70682 -0.816355 0
M  V30 7930 O 742.987 -0.97527 -1.55673 0
M  V30 7931 C 743.049 -3.50845 0.784081 0
M  V30 7932 C 742.713 -4.01084 2.19045 0
M  V30 7933 C 743.71 -4.12347 3.16648 0
M  V30 7934 C 741.395 -4.34936 2.51268 0
M  V30 7935 C 743.389 -4.56766 4.44572 0
M  V30 7936 C 741.076 -4.79043 3.79422 0
M  V30 7937 C 742.074 -4.89919 4.75887 0
M  V30 7938 O 741.762 -5.3305 6.01758 0
M  V30 7939 H 741.494 -0.635738 0.22981 0
M  V30 7940 H 744.048 -1.61268 1.27207 0
M  V30 7941 H 742.278 -3.86638 0.069101 0
M  V30 7942 H 743.967 -4.03363 0.453135 0
M  V30 7943 H 744.733 -3.86432 2.93079 0
M  V30 7944 H 740.612 -4.25702 1.76916 0
M  V30 7945 H 744.156 -4.6517 5.19868 0
M  V30 7946 H 740.053 -5.04402 4.02802 0
M  V30 7947 H 740.821 -5.51255 6.05029 0
M  V30 7948 N 743.484 -0.715051 -1.40445 0
M  V30 7949 C 744.731 -0.254328 -2.00897 0
M  V30 7950 C 745.059 1.15228 -1.56693 0
M  V30 7951 O 744.314 1.7958 -0.777786 0
M  V30 7952 C 744.613 -0.281791 -3.56287 0
M  V30 7953 C 744.279 -1.63862 -4.20071 0
M  V30 7954 C 742.941 -2.01003 -4.37208 0
M  V30 7955 C 745.293 -2.53039 -4.55654 0
M  V30 7956 C 742.621 -3.26869 -4.8721 0
M  V30 7957 C 744.973 -3.78256 -5.07055 0
M  V30 7958 C 743.637 -4.15515 -5.22401 0
M  V30 7959 H 742.907 -0.0930652 -0.735133 0
M  V30 7960 H 745.554 -0.917977 -1.68064 0
M  V30 7961 H 743.859 0.465428 -3.89026 0
M  V30 7962 H 745.556 0.0925158 -4.00893 0
M  V30 7963 H 742.146 -1.33979 -4.07121 0
M  V30 7964 H 746.33 -2.2562 -4.42051 0
M  V30 7965 H 741.586 -3.55706 -4.97276 0
M  V30 7966 H 745.76 -4.47528 -5.33565 0
M  V30 7967 H 743.387 -5.13114 -5.60909 0
M  V30 7968 N 744.962 1.50701 -0.461195 0
M  V30 7969 C 746.21 2.01867 0.0970051 0
M  V30 7970 C 746.531 1.34591 1.41104 0
M  V30 7971 O 745.801 0.488041 1.89723 0
M  V30 7972 H 744.381 0.74599 0.0388392 0
M  V30 7973 H 747.043 1.85129 -0.609357 0
M  V30 7974 H 746.139 3.11051 0.255688 0
M  V30 7975 N 746.441 0.193421 1.56409 0
M  V30 7976 C 747.391 -0.74089 2.15627 0
M  V30 7977 C 748.375 -1.17747 1.09656 0
M  V30 7978 O 749.567 -1.13615 1.35723 0
M  V30 7979 C 746.696 -1.96091 2.81786 0
M  V30 7980 C 745.782 -1.54531 3.94944 0
M  V30 7981 N 746.173 -0.840569 4.98767 0
M  V30 7982 C 744.471 -1.83473 4.06514 0
M  V30 7983 C 745.172 -0.632571 5.7825 0
M  V30 7984 N 744.148 -1.18078 5.30621 0
M  V30 7985 H 747.95 -0.193718 2.93261 0
M  V30 7986 H 745.464 -0.00643211 1.62399 0
M  V30 7987 H 747.461 -2.64071 3.22602 0
M  V30 7988 H 746.121 -2.51282 2.05639 0
M  V30 7989 H 747.132 -0.496218 5.15517 0
M  V30 7990 H 743.809 -2.40184 3.41493 0
M  V30 7991 H 745.199 -0.0736433 6.7186 0
M  V30 7992 N 747.919 -1.57396 -0.0801906 0
M  V30 7993 C 749.165 -1.87113 -0.782083 0
M  V30 7994 C 749.498 -0.78458 -1.77646 0
M  V30 7995 O 748.773 0.205993 -1.93406 0
M  V30 7996 C 749.056 -3.27483 -1.49756 0
M  V30 7997 C 748.909 -4.46782 -0.520171 0
M  V30 7998 C 750.228 -3.65965 -2.44454 0
M  V30 7999 H 747.347 -0.680559 -0.282858 0
M  V30 8000 H 749.989 -1.89946 -0.0454139 0
M  V30 8001 H 748.139 -3.25199 -2.12551 0
M  V30 8002 H 749.811 -4.61187 0.101919 0
M  V30 8003 H 748.054 -4.33485 0.165219 0
M  V30 8004 H 748.725 -5.41761 -1.05824 0
M  V30 8005 H 751.201 -3.69289 -1.91742 0
M  V30 8006 H 750.077 -4.65086 -2.91524 0
M  V30 8007 H 750.338 -2.95446 -3.28883 0
M  V30 8008 N 749.397 0.351382 -1.53633 0
M  V30 8009 C 750.622 1.11718 -1.74739 0
M  V30 8010 C 751.047 1.81829 -0.481657 0
M  V30 8011 O 750.405 1.72264 0.565233 0
M  V30 8012 C 750.453 2.11234 -2.92254 0
M  V30 8013 O 749.557 3.186 -2.61855 0
M  V30 8014 H 748.898 0.323482 -0.579875 0
M  V30 8015 H 751.428 0.404167 -2.00568 0
M  V30 8016 H 751.438 2.54591 -3.18822 0
M  V30 8017 H 750.113 1.59599 -3.84058 0
M  V30 8018 H 748.69 2.80115 -2.4615 0
M  V30 8019 N 750.875 1.45233 0.611969 0
M  V30 8020 C 751.805 1.5641 1.73373 0
M  V30 8021 C 752.786 0.415896 1.64937 0
M  V30 8022 O 753.971 0.638478 1.83404 0
M  V30 8023 C 751.101 1.52627 3.11965 0
M  V30 8024 C 750.055 2.66119 3.35208 0
M  V30 8025 C 749.381 2.4739 4.74028 0
M  V30 8026 C 750.681 4.08157 3.25891 0
M  V30 8027 H 752.375 2.50307 1.64277 0
M  V30 8028 H 749.921 1.20467 0.788904 0
M  V30 8029 H 751.874 1.59043 3.90235 0
M  V30 8030 H 750.598 0.552564 3.21892 0
M  V30 8031 H 749.257 2.59123 2.59327 0
M  V30 8032 H 748.905 1.48168 4.80682 0
M  V30 8033 H 748.605 3.23494 4.90536 0
M  V30 8034 H 750.129 2.55653 5.54503 0
M  V30 8035 H 751.543 4.1642 3.9404 0
M  V30 8036 H 749.94 4.84617 3.5393 0
M  V30 8037 H 751.01 4.30374 2.23397 0
M  V30 8038 N 752.353 -0.854086 1.3245 0
M  V30 8039 C 753.599 -1.61069 1.23225 0
M  V30 8040 C 753.932 -1.93111 -0.205349 0
M  V30 8041 O 753.207 -1.57397 -1.14265 0
M  V30 8042 C 753.49 -2.93065 2.09249 0
M  V30 8043 C 753.343 -2.67801 3.6139 0
M  V30 8044 C 754.662 -3.94341 1.95406 0
M  V30 8045 H 751.781 -0.584449 0.448986 0
M  V30 8046 H 754.423 -0.986189 1.62402 0
M  V30 8047 H 752.573 -3.46364 1.75967 0
M  V30 8048 H 754.245 -2.21052 4.04887 0
M  V30 8049 H 752.488 -2.01756 3.84027 0
M  V30 8050 H 753.159 -3.6179 4.16907 0
M  V30 8051 H 755.635 -3.50301 2.24562 0
M  V30 8052 H 754.511 -4.84555 2.57872 0
M  V30 8053 H 754.772 -4.32382 0.921865 0
M  V30 8054 N 753.831 -1.1567 -1.07043 0
M  V30 8055 C 754.778 -0.856336 -2.14326 0
M  V30 8056 C 755.748 0.192051 -1.64986 0
M  V30 8057 O 756.933 0.0589148 -1.90709 0
M  V30 8058 C 754.073 -0.355227 -3.43267 0
M  V30 8059 C 753.186 -1.46555 -4.06381 0
M  V30 8060 C 752.321 -0.920245 -5.23168 0
M  V30 8061 C 751.36 -2.00729 -5.78251 0
M  V30 8062 N 750.497 -1.47813 -6.86364 0
M  V30 8063 H 755.337 -1.77514 -2.39359 0
M  V30 8064 H 752.874 -0.885676 -1.17449 0
M  V30 8065 H 754.832 -0.0463804 -4.17174 0
M  V30 8066 H 753.462 0.526649 -3.18475 0
M  V30 8067 H 752.514 -1.89052 -3.30096 0
M  V30 8068 H 753.826 -2.28616 -4.43324 0
M  V30 8069 H 752.98 -0.564127 -6.04072 0
M  V30 8070 H 751.719 -0.0688477 -4.87651 0
M  V30 8071 H 750.724 -2.3722 -4.95991 0
M  V30 8072 H 751.949 -2.86252 -6.15822 0
M  V30 8073 H 749.895 -0.649145 -6.5278 0
M  V30 8074 H 749.812 -2.23498 -7.22208 0
M  V30 8075 H 751.08 -1.15036 -7.70965 0
M  V30 8076 N 755.309 1.25446 -0.953992 0
M  V30 8077 C 756.239 2.28264 -0.491717 0
M  V30 8078 C 757.22 1.63717 0.461617 0
M  V30 8079 O 758.405 1.90821 0.36071 0
M  V30 8080 C 755.535 3.46525 0.231915 0
M  V30 8081 C 754.489 4.23247 -0.636098 0
M  V30 8082 C 753.815 5.34254 0.218238 0
M  V30 8083 C 755.115 4.85971 -1.91389 0
M  V30 8084 H 756.809 2.67183 -1.35106 0
M  V30 8085 H 754.355 1.2844 -0.651095 0
M  V30 8086 H 756.308 4.17576 0.566439 0
M  V30 8087 H 755.032 3.06594 1.12551 0
M  V30 8088 H 753.691 3.53978 -0.953696 0
M  V30 8089 H 753.339 4.90564 1.11156 0
M  V30 8090 H 753.039 5.86501 -0.359232 0
M  V30 8091 H 754.563 6.08138 0.547743 0
M  V30 8092 H 755.977 5.49168 -1.64581 0
M  V30 8093 H 754.374 5.48391 -2.43696 0
M  V30 8094 H 755.444 4.08192 -2.61738 0
M  V30 8095 N 756.787 0.722489 1.40064 0
M  V30 8096 C 757.717 0.0892452 2.33329 0
M  V30 8097 C 758.698 -0.737992 1.53257 0
M  V30 8098 O 759.883 -0.685516 1.81698 0
M  V30 8099 C 757.013 -0.828139 3.37282 0
M  V30 8100 C 755.967 -0.106005 4.27869 0
M  V30 8101 C 755.293 -1.13957 5.22415 0
M  V30 8102 C 756.593 1.04395 5.11761 0
M  V30 8103 H 758.287 0.868269 2.86534 0
M  V30 8104 H 755.833 0.418982 1.3777 0
M  V30 8105 H 757.786 -1.28058 4.01471 0
M  V30 8106 H 756.51 -1.63914 2.82489 0
M  V30 8107 H 755.169 0.326683 3.65142 0
M  V30 8108 H 754.817 -1.9438 4.63924 0
M  V30 8109 H 754.517 -0.661233 5.83868 0
M  V30 8110 H 756.041 -1.59197 5.89482 0
M  V30 8111 H 757.455 0.670541 5.69365 0
M  V30 8112 H 755.852 1.4511 5.82291 0
M  V30 8113 H 756.922 1.87144 4.47331 0
M  V30 8114 N 758.265 -1.50454 0.469181 0
M  V30 8115 C 759.493 -2.06729 -0.0842134 0
M  V30 8116 C 759.908 -1.33326 -1.33677 0
M  V30 8117 O 759.265 -0.401977 -1.78018 0
M  V30 8118 C 759.316 -3.59557 -0.374253 0
M  V30 8119 O 759.037 -4.30192 0.828622 0
M  V30 8120 C 760.538 -4.32449 -0.974824 0
M  V30 8121 H 757.758 -0.670971 0.006231 0
M  V30 8122 H 760.302 -1.93645 0.657415 0
M  V30 8123 H 758.457 -3.7245 -1.06581 0
M  V30 8124 H 758.871 -5.21371 0.572066 0
M  V30 8125 H 760.345 -5.40361 -1.12755 0
M  V30 8126 H 760.822 -3.92819 -1.96442 0
M  V30 8127 H 761.428 -4.24082 -0.321703 0
M  V30 8128 N 759.743 -0.201713 -1.56304 0
M  V30 8129 C 760.968 0.443815 -2.02596 0
M  V30 8130 C 761.393 1.53945 -1.08086 0
M  V30 8131 O 760.751 1.81182 -0.0655056 0
M  V30 8132 C 760.799 0.971066 -3.47279 0
M  V30 8133 O 759.903 2.0836 -3.55893 0
M  V30 8134 H 759.244 0.10294 -0.655972 0
M  V30 8135 H 761.774 -0.314533 -2.02168 0
M  V30 8136 H 761.784 1.28598 -3.87204 0
M  V30 8137 H 760.459 0.169048 -4.15556 0
M  V30 8138 H 759.036 1.77683 -3.27846 0
M  V30 8139 N 761.222 1.57436 0.0718424 0
M  V30 8140 C 762.154 2.00412 1.1121 0
M  V30 8141 C 763.167 0.910074 1.34987 0
M  V30 8142 O 764.356 1.18796 1.33228 0
M  V30 8143 C 761.456 2.32786 2.46301 0
M  V30 8144 C 760.629 3.64036 2.4248 0
M  V30 8145 C 759.688 3.8408 3.59679 0
M  V30 8146 O 758.714 4.55667 3.4111 0
M  V30 8147 N 759.916 3.2643 4.80025 0
M  V30 8148 H 762.681 2.90264 0.746118 0
M  V30 8149 H 760.242 1.59791 0.260495 0
M  V30 8150 H 762.234 2.43368 3.23348 0
M  V30 8151 H 760.804 1.48824 2.74901 0
M  V30 8152 H 760.024 3.64208 1.50818 0
M  V30 8153 H 761.312 4.50217 2.37027 0
M  V30 8154 H 760.71 2.68325 4.98014 0
M  V30 8155 H 759.267 3.42461 5.54584 0
M  V30 8156 N 762.7 -0.34323 1.53817 0
M  V30 8157 C 763.948 -1.0813 1.70741 0
M  V30 8158 C 764.269 -1.89165 0.473461 0
M  V30 8159 O 763.539 -1.89075 -0.512605 0
M  V30 8160 H 762.119 -0.40219 0.629486 0
M  V30 8161 H 764.781 -0.384426 1.91071 0
M  V30 8162 H 763.877 -1.7585 2.57843 0
M  V30 8163 N 764.178 -1.45556 -0.604258 0
M  V30 8164 C 765.141 -1.54091 -1.69672 0
M  V30 8165 C 766.141 -0.420076 -1.55216 0
M  V30 8166 O 767.331 -0.683671 -1.60224 0
M  V30 8167 C 764.463 -1.44063 -3.08964 0
M  V30 8168 H 765.656 -2.51431 -1.6347 0
M  V30 8169 H 763.209 -1.33046 -0.820273 0
M  V30 8170 H 763.944 -0.479201 -3.2074 0
M  V30 8171 H 763.729 -2.25362 -3.20865 0
M  V30 8172 H 765.219 -1.53075 -3.88533 0
M  V30 8173 N 765.656 0.84705 -1.32902 0
M  V30 8174 C 766.566 1.98845 -1.2449 0
M  V30 8175 C 767.582 1.7329 -0.15702 0
M  V30 8176 O 768.758 1.978 -0.379104 0
M  V30 8177 C 765.823 3.32679 -0.975985 0
M  V30 8178 C 764.884 3.71405 -2.15306 0
M  V30 8179 C 764.117 4.98853 -1.89688 0
M  V30 8180 O 764.34 5.64134 -0.843168 0
M  V30 8181 O 763.274 5.34889 -2.76002 0
M  V30 8182 H 767.1 2.0888 -2.2046 0
M  V30 8183 H 764.685 0.978852 -1.12867 0
M  V30 8184 H 766.567 4.12885 -0.842826 0
M  V30 8185 H 765.242 3.23667 -0.0464954 0
M  V30 8186 H 764.149 2.91743 -2.34172 0
M  V30 8187 H 765.482 3.85073 -3.06561 0
M  V30 8188 N 767.134 1.16236 1.06428 0
M  V30 8189 C 768.064 0.890807 2.1584 0
M  V30 8190 C 769.045 -0.162333 1.69324 0
M  V30 8191 O 770.23 -0.0147191 1.94194 0
M  V30 8192 C 767.36 0.389615 3.45108 0
M  V30 8193 C 766.314 1.38051 4.05125 0
M  V30 8194 C 765.64 0.737773 5.29586 0
M  V30 8195 C 766.94 2.74965 4.44062 0
M  V30 8196 H 768.634 1.80577 2.38814 0
M  V30 8197 H 766.18 0.869657 1.14774 0
M  V30 8198 H 768.133 0.187127 4.20984 0
M  V30 8199 H 766.857 -0.560851 3.21748 0
M  V30 8200 H 765.516 1.56952 3.31303 0
M  V30 8201 H 765.164 -0.219135 5.02522 0
M  V30 8202 H 764.864 1.39914 5.70699 0
M  V30 8203 H 766.388 0.545275 6.0816 0
M  V30 8204 H 767.802 2.59855 5.11027 0
M  V30 8205 H 766.199 3.37563 4.96156 0
M  V30 8206 H 767.269 3.30321 3.54987 0
M  V30 8207 N 768.612 -1.24939 0.960631 0
M  V30 8208 C 769.889 -1.88118 0.535807 0
M  V30 8209 C 770.269 -1.86605 -0.987009 0
M  V30 8210 O 769.617 -1.33375 -1.85536 0
M  V30 8211 C 769.827 -3.30565 1.11927 0
M  V30 8212 C 771.175 -4.07296 1.19981 0
M  V30 8213 O 772.199 -3.39709 1.07126 0
M  V30 8214 O 771.058 -5.28206 1.40218 0
M  V30 8215 H 768.152 -0.807698 0.177631 0
M  V30 8216 H 770.698 -1.32964 1.05445 0
M  V30 8217 H 769.47 -3.26128 2.16231 0
M  V30 8218 H 769.093 -3.93284 0.584245 0
M  V30 8219 N 770.09 -0.729906 -1.39679 0
M  V30 8220 C 771.053 -0.0951668 -2.29002 0
M  V30 8221 C 772.053 0.672471 -1.46063 0
M  V30 8222 O 773.243 0.502245 -1.66803 0
M  V30 8223 C 770.375 0.874631 -3.29489 0
M  V30 8224 H 771.568 -0.882062 -2.86635 0
M  V30 8225 H 769.121 -0.495424 -1.4824 0
M  V30 8226 H 769.856 1.68807 -2.76902 0
M  V30 8227 H 769.641 0.326893 -3.90735 0
M  V30 8228 H 771.131 1.31548 -3.96339 0
M  V30 8229 N 771.568 1.50203 -0.477153 0
M  V30 8230 C 772.5 2.26508 0.350239 0
M  V30 8231 C 773.513 1.32081 0.95176 0
M  V30 8232 O 774.702 1.57546 0.839139 0
M  V30 8233 C 771.802 3.0361 1.50579 0
M  V30 8234 C 770.975 4.25438 1.01595 0
M  V30 8235 C 770.034 4.84783 2.04626 0
M  V30 8236 O 769.06 5.45528 1.62442 0
M  V30 8237 N 770.262 4.72318 3.37485 0
M  V30 8238 H 773.027 2.98155 -0.30394 0
M  V30 8239 H 770.588 1.58938 -0.308289 0
M  V30 8240 H 772.58 3.4019 2.1921 0
M  V30 8241 H 771.15 2.34724 2.06455 0
M  V30 8242 H 770.37 3.93894 0.155316 0
M  V30 8243 H 771.658 5.04413 0.666694 0
M  V30 8244 H 771.056 4.24022 3.74462 0
M  V30 8245 H 769.613 5.13149 4.01897 0
M  V30 8246 N 773.046 0.209999 1.56195 0
M  V30 8247 C 773.978 -0.736967 2.17029 0
M  V30 8248 C 774.991 -1.16599 1.13616 0
M  V30 8249 O 776.18 -1.09914 1.40646 0
M  V30 8250 C 773.28 -2.00852 2.72969 0
M  V30 8251 C 772.453 -1.73691 4.01435 0
M  V30 8252 C 771.512 -2.85439 4.42053 0
M  V30 8253 O 770.538 -2.54405 5.09183 0
M  V30 8254 N 771.74 -4.14135 4.06783 0
M  V30 8255 H 774.505 -0.216656 2.98916 0
M  V30 8256 H 772.066 0.0285672 1.61875 0
M  V30 8257 H 774.058 -2.74778 2.97118 0
M  V30 8258 H 772.628 -2.43963 1.95451 0
M  V30 8259 H 771.848 -0.834676 3.85262 0
M  V30 8260 H 773.136 -1.52961 4.85263 0
M  V30 8261 H 772.534 -4.42196 3.52816 0
M  V30 8262 H 771.091 -4.84642 4.35851 0
M  V30 8263 N 774.524 -1.57472 -0.0634922 0
M  V30 8264 C 775.94 -1.54016 -0.418466 0
M  V30 8265 C 776.14 -0.931376 -1.78683 0
M  V30 8266 O 775.196 -0.537465 -2.46714 0
M  V30 8267 C 776.509 -2.98634 -0.351906 0
M  V30 8268 C 778.057 -3.10012 -0.431494 0
M  V30 8269 C 778.532 -4.56296 -0.394754 0
M  V30 8270 N 780.023 -4.60964 -0.454583 0
M  V30 8271 C 780.758 -5.71643 -0.448501 0
M  V30 8272 N 780.254 -6.91663 -0.396742 0
M  V30 8273 N 782.047 -5.5991 -0.495677 0
M  V30 8274 H 774.198 -1.95409 0.832408 0
M  V30 8275 H 776.461 -0.894769 0.313197 0
M  V30 8276 H 776.167 -3.46766 0.587048 0
M  V30 8277 H 776.041 -3.58955 -1.15893 0
M  V30 8278 H 778.428 -2.61848 -1.36087 0
M  V30 8279 H 778.509 -2.52585 0.404258 0
M  V30 8280 H 778.153 -5.05119 0.530811 0
M  V30 8281 H 778.083 -5.11594 -1.24815 0
M  V30 8282 H 780.574 -3.74598 -0.498496 0
M  V30 8283 H 780.887 -7.71783 -0.396256 0
M  V30 8284 H 779.232 -6.9405 -0.363304 0
M  V30 8285 H 782.423 -4.65046 -0.533864 0
M  V30 8286 H 782.596 -6.46164 -0.487469 0
M  V30 8287 N 776.003 0.335068 -1.53997 0
M  V30 8288 C 776.951 1.43206 -1.83289 0
M  V30 8289 C 777.945 1.54081 -0.703953 0
M  V30 8290 O 779.151 1.56603 -0.887432 0
M  V30 8291 H 775.526 0.477655 -0.580818 0
M  V30 8292 H 777.497 1.15719 -2.75049 0
M  V30 8293 C 776.246 2.79602 -2.06683 0
M  V30 8294 H 775.569 2.72004 -2.93008 0
M  V30 8295 H 777.009 3.55459 -2.31139 0
M  V30 8296 C 775.468 3.25873 -0.854883 0
M  V30 8297 O 775.998 4.01657 -0.0584648 0
M  V30 8298 N 774.204 2.82777 -0.669729 0
M  V30 8299 H 773.751 2.21269 -1.31901 0
M  V30 8300 H 773.709 3.1409 0.13969 0
M  V30 8301 N 777.481 1.45874 0.596531 0
M  V30 8302 C 778.411 1.5824 1.71705 0
M  V30 8303 C 779.392 0.433366 1.64487 0
M  V30 8304 O 780.577 0.657895 1.82717 0
M  V30 8305 C 777.707 1.55927 3.10329 0
M  V30 8306 C 776.661 2.69659 3.32367 0
M  V30 8307 C 775.987 2.52403 4.71377 0
M  V30 8308 C 777.287 4.11591 3.21544 0
M  V30 8309 H 778.981 2.52035 1.61613 0
M  V30 8310 H 776.527 1.21297 0.776082 0
M  V30 8311 H 778.48 1.63173 3.88526 0
M  V30 8312 H 777.204 0.586674 3.21288 0
M  V30 8313 H 775.863 2.61859 2.56564 0
M  V30 8314 H 775.511 1.53258 4.79083 0
M  V30 8315 H 775.211 3.28679 4.87077 0
M  V30 8316 H 776.735 2.6152 5.5176 0
M  V30 8317 H 778.149 4.20576 3.89601 0
M  V30 8318 H 776.546 4.88344 3.4877 0
M  V30 8319 H 777.616 4.32719 2.1882 0
M  V30 8320 N 778.959 -0.83999 1.33349 0
M  V30 8321 C 780.375 -1.13049 1.12659 0
M  V30 8322 C 780.575 -2.01328 -0.0832613 0
M  V30 8323 O 779.631 -2.40669 -0.763856 0
M  V30 8324 C 780.944 -1.79366 2.41347 0
M  V30 8325 C 782.492 -1.91937 2.47243 0
M  V30 8326 C 782.967 -2.6167 3.75889 0
M  V30 8327 N 784.458 -2.69184 3.76954 0
M  V30 8328 C 785.193 -3.23827 4.73206 0
M  V30 8329 N 784.689 -3.79166 5.79832 0
M  V30 8330 N 786.482 -3.22068 4.60683 0
M  V30 8331 H 778.633 -0.252432 2.10895 0
M  V30 8332 H 780.896 -0.174501 0.931801 0
M  V30 8333 H 780.602 -1.2196 3.29877 0
M  V30 8334 H 780.476 -2.79396 2.53412 0
M  V30 8335 H 782.863 -2.48498 1.59163 0
M  V30 8336 H 782.944 -0.908604 2.39119 0
M  V30 8337 H 782.588 -2.05769 4.64351 0
M  V30 8338 H 782.518 -3.63217 3.81289 0
M  V30 8339 H 785.009 -2.2994 2.99893 0
M  V30 8340 H 785.322 -4.19061 6.49313 0
M  V30 8341 H 783.667 -3.77457 5.83568 0
M  V30 8342 H 786.858 -2.78092 3.7654 0
M  V30 8343 H 787.031 -3.64351 5.35866 0
M  V30 8344 N 780.437 -1.16799 -1.0581 0
M  V30 8345 C 781.665 -0.97687 -1.82387 0
M  V30 8346 C 782.08 0.474917 -1.82729 0
M  V30 8347 O 781.437 1.3297 -1.25001 0
M  V30 8348 C 781.488 -1.50279 -3.28783 0
M  V30 8349 O 781.209 -2.89772 -3.28578 0
M  V30 8350 C 782.71 -1.35538 -4.22071 0
M  V30 8351 H 779.93 -0.345977 -0.574927 0
M  V30 8352 H 782.474 -1.54942 -1.33466 0
M  V30 8353 H 780.629 -0.972414 -3.74997 0
M  V30 8354 H 781.043 -3.13954 -4.20159 0
M  V30 8355 H 782.517 -1.7716 -5.22799 0
M  V30 8356 H 782.994 -0.301598 -4.38163 0
M  V30 8357 H 783.6 -1.87562 -3.81708 0
M  V30 8358 N 781.915 1.24427 -0.967243 0
M  V30 8359 C 783.326 1.74349 -0.667785 0
M  V30 8360 C 783.677 1.78403 0.816509 0
M  V30 8361 O 782.802 1.41315 1.63887 0
M  V30 8362 C 783.397 3.16628 -1.20548 0
M  V30 8363 C 781.956 3.64059 -0.955934 0
M  V30 8364 C 781.103 2.42715 -1.34106 0
M  V30 8365 H 784.054 1.10136 -1.14262 0
M  V30 8366 H 784.075 3.76183 -0.571547 0
M  V30 8367 H 783.587 3.13646 -2.28578 0
M  V30 8368 H 781.688 3.72441 0.108858 0
M  V30 8369 H 781.801 4.51549 -1.60126 0
M  V30 8370 H 780.165 2.43114 -0.759452 0
M  V30 8371 H 780.948 2.42414 -2.43085 0
M  V30 8372 N 783.393 0.737304 1.3929 0
M  V30 8373 C 784.323 0.113988 2.33222 0
M  V30 8374 C 785.304 -0.721695 1.54031 0
M  V30 8375 O 786.489 -0.666206 1.82415 0
M  V30 8376 C 783.619 -0.792319 3.38141 0
M  V30 8377 C 782.573 -0.0606178 4.27957 0
M  V30 8378 C 781.899 -1.08409 5.23595 0
M  V30 8379 C 783.199 1.09817 5.10625 0
M  V30 8380 H 784.893 0.898611 2.85596 0
M  V30 8381 H 782.439 0.433571 1.37318 0
M  V30 8382 H 784.392 -1.23793 4.02807 0
M  V30 8383 H 783.116 -1.60908 2.84211 0
M  V30 8384 H 781.775 0.365393 3.64775 0
M  V30 8385 H 781.423 -1.89449 4.6596 0
M  V30 8386 H 781.123 -0.599269 5.84536 0
M  V30 8387 H 782.647 -1.52936 5.91137 0
M  V30 8388 H 784.061 0.730892 5.68622 0
M  V30 8389 H 782.458 1.51278 5.80719 0
M  V30 8390 H 783.528 1.91878 4.45321 0
M  V30 8391 N 784.871 -1.49948 0.485112 0
M  V30 8392 C 785.821 -2.25734 -0.320658 0
M  V30 8393 C 786.805 -1.29907 -0.949373 0
M  V30 8394 O 787.997 -1.54725 -0.859601 0
M  V30 8395 C 785.126 -3.13728 -1.39391 0
M  V30 8396 C 784.212 -4.1701 -0.772225 0
M  V30 8397 N 784.603 -5.05667 0.115782 0
M  V30 8398 C 782.901 -4.33834 -1.03461 0
M  V30 8399 C 783.602 -5.79798 0.47004 0
M  V30 8400 N 782.578 -5.4337 -0.158204 0
M  V30 8401 H 786.38 -2.91647 0.36319 0
M  V30 8402 H 783.894 -1.59602 0.300154 0
M  V30 8403 H 785.891 -3.66639 -1.98447 0
M  V30 8404 H 784.551 -2.49365 -2.0796 0
M  V30 8405 H 785.562 -5.15619 0.485557 0
M  V30 8406 H 782.239 -3.80684 -1.71424 0
M  V30 8407 H 783.629 -6.61177 1.19558 0
M  V30 8408 N 786.349 -0.21828 -1.56081 0
M  V30 8409 C 787.279 0.687922 -2.23136 0
M  V30 8410 C 788.26 1.20357 -1.202 0
M  V30 8411 O 789.445 1.24817 -1.48776 0
M  V30 8412 C 786.575 1.89762 -2.90874 0
M  V30 8413 C 785.529 1.51595 -4.00254 0
M  V30 8414 C 784.855 2.80415 -4.55271 0
M  V30 8415 C 786.155 0.708404 -5.17474 0
M  V30 8416 H 787.849 0.128854 -2.99123 0
M  V30 8417 H 785.395 0.0605354 -1.43873 0
M  V30 8418 H 787.348 2.53699 -3.36474 0
M  V30 8419 H 786.072 2.4816 -2.1233 0
M  V30 8420 H 784.731 0.900058 -3.55379 0
M  V30 8421 H 784.379 3.36951 -3.73461 0
M  V30 8422 H 784.079 2.55613 -5.2909 0
M  V30 8423 H 785.603 3.453 -5.03587 0
M  V30 8424 H 787.017 1.2514 -5.59476 0
M  V30 8425 H 785.414 0.557593 -5.97504 0
M  V30 8426 H 786.484 -0.285679 -4.84058 0
M  V30 8427 N 787.827 1.57504 0.0551401 0
M  V30 8428 C 788.79 2.03826 1.04821 0
M  V30 8429 C 789.79 0.937968 1.30609 0
M  V30 8430 O 790.98 1.20237 1.2605 0
M  V30 8431 C 788.112 2.43309 2.38775 0
M  V30 8432 H 789.305 2.92802 0.6486 0
M  V30 8433 H 786.858 1.53368 0.301315 0
M  V30 8434 H 787.593 1.5741 2.83536 0
M  V30 8435 H 787.378 3.23615 2.21395 0
M  V30 8436 H 788.868 2.79666 3.10124 0
M  V30 8437 N 789.305 -0.326896 1.54172 0
M  V30 8438 C 790.551 -1.06681 1.72473 0
M  V30 8439 C 790.884 -1.87779 0.49523 0
M  V30 8440 O 790.159 -1.87754 -0.507803 0
M  V30 8441 C 790.442 -1.99429 2.99834 0
M  V30 8442 C 790.295 -1.21682 4.33028 0
M  V30 8443 C 791.614 -2.99002 3.22933 0
M  V30 8444 H 788.733 -0.386438 0.627563 0
M  V30 8445 H 791.375 -0.343779 1.86864 0
M  V30 8446 H 789.525 -2.61081 2.87696 0
M  V30 8447 H 791.197 -0.625153 4.57044 0
M  V30 8448 H 789.44 -0.519045 4.30684 0
M  V30 8449 H 790.111 -1.89766 5.18356 0
M  V30 8450 H 792.587 -2.4747 3.34511 0
M  V30 8451 H 791.463 -3.61085 4.13412 0
M  V30 8452 H 791.724 -3.71281 2.40006 0
M  V30 8453 N 790.784 -1.46188 -0.588786 0
M  V30 8454 C 791.694 -1.58865 -1.72624 0
M  V30 8455 C 792.71 -0.472348 -1.67466 0
M  V30 8456 O 793.886 -0.735638 -1.87484 0
M  V30 8457 C 790.951 -1.56989 -3.0912 0
M  V30 8458 C 790.012 -2.79804 -3.25589 0
M  V30 8459 C 789.245 -2.78009 -4.55573 0
M  V30 8460 O 789.468 -1.86406 -5.39082 0
M  V30 8461 O 788.402 -3.6947 -4.75159 0
M  V30 8462 H 792.228 -2.55047 -1.64878 0
M  V30 8463 H 789.813 -1.28912 -0.755115 0
M  V30 8464 H 791.695 -1.58618 -3.90408 0
M  V30 8465 H 790.37 -0.639648 -3.17317 0
M  V30 8466 H 789.277 -2.83732 -2.43818 0
M  V30 8467 H 790.61 -3.72017 -3.22279 0
M  V30 8468 N 792.262 0.832906 -1.33792 0
M  V30 8469 C 793.678 1.1245 -1.13257 0
M  V30 8470 C 793.878 2.01369 0.0725832 0
M  V30 8471 O 792.934 2.41071 0.751082 0
M  V30 8472 C 794.247 1.78084 -2.42294 0
M  V30 8473 C 795.795 1.90624 -2.48257 0
M  V30 8474 C 796.27 2.59673 -3.77271 0
M  V30 8475 N 797.761 2.67181 -3.78376 0
M  V30 8476 C 798.496 3.21313 -4.74916 0
M  V30 8477 N 797.992 3.76086 -5.81835 0
M  V30 8478 N 799.785 3.19621 -4.62384 0
M  V30 8479 H 791.936 0.241244 -2.11026 0
M  V30 8480 H 794.199 0.169557 -0.932713 0
M  V30 8481 H 793.905 1.20209 -3.30519 0
M  V30 8482 H 793.779 2.78049 -2.5489 0
M  V30 8483 H 796.166 2.4765 -1.60478 0
M  V30 8484 H 796.247 0.89591 -2.39598 0
M  V30 8485 H 795.891 2.03304 -4.65435 0
M  V30 8486 H 795.821 3.61189 -3.8321 0
M  V30 8487 H 798.312 2.28346 -3.01108 0
M  V30 8488 H 798.625 4.15612 -6.51526 0
M  V30 8489 H 796.97 3.74357 -5.85561 0
M  V30 8490 H 800.161 2.76091 -3.7801 0
M  V30 8491 H 800.334 3.61504 -5.37791 0
M  V30 8492 N 793.74 1.17359 1.05189 0
M  V30 8493 C 794.988 0.960087 1.77839 0
M  V30 8494 C 795.309 -0.512554 1.88143 0
M  V30 8495 O 794.579 -1.3721 1.39822 0
M  V30 8496 H 793.159 0.352234 0.658741 0
M  V30 8497 H 795.821 1.47834 1.27008 0
M  V30 8498 H 794.917 1.38843 2.79516 0
M  V30 8499 N 795.218 -1.23913 0.973828 0
M  V30 8500 C 796.165 -2.25132 0.508366 0
M  V30 8501 C 797.135 -1.59908 -0.449307 0
M  V30 8502 O 798.32 -1.87405 -0.358313 0
M  V30 8503 C 795.46 -3.4458 -0.189422 0
M  V30 8504 C 794.573 -4.24381 0.807738 0
M  V30 8505 C 793.708 -5.31131 0.0854315 0
M  V30 8506 C 792.747 -6.02635 1.07225 0
M  V30 8507 N 791.884 -7.01073 0.379535 0
M  V30 8508 H 796.724 -2.64313 1.37632 0
M  V30 8509 H 794.261 -1.29924 0.689802 0
M  V30 8510 H 796.219 -4.12706 -0.610733 0
M  V30 8511 H 794.849 -3.06218 -1.02129 0
M  V30 8512 H 793.901 -3.55735 1.34747 0
M  V30 8513 H 795.213 -4.73778 1.55998 0
M  V30 8514 H 794.367 -6.05422 -0.393572 0
M  V30 8515 H 793.106 -4.82658 -0.699461 0
M  V30 8516 H 792.111 -5.27143 1.56207 0
M  V30 8517 H 793.336 -6.53197 1.85769 0
M  V30 8518 H 791.282 -6.54862 -0.386269 0
M  V30 8519 H 791.199 -7.48382 1.07054 0
M  V30 8520 H 792.467 -7.79462 -0.0772984 0
M  V30 8521 N 796.696 -0.74468 -1.38897 0
M  V30 8522 C 797.942 -0.297324 -2.00609 0
M  V30 8523 C 798.275 1.11547 -1.58968 0
M  V30 8524 O 797.55 1.76227 -0.823057 0
M  V30 8525 C 797.833 -0.410125 -3.57757 0
M  V30 8526 C 797.686 -1.86338 -4.09387 0
M  V30 8527 C 799.005 0.20176 -4.39637 0
M  V30 8528 H 796.124 -0.109509 -0.728819 0
M  V30 8529 H 798.766 -0.942653 -1.64967 0
M  V30 8530 H 796.916 0.139287 -3.8825 0
M  V30 8531 H 798.588 -2.47042 -3.89574 0
M  V30 8532 H 796.831 -2.38146 -3.62586 0
M  V30 8533 H 797.502 -1.89352 -5.18507 0
M  V30 8534 H 799.978 -0.266703 -4.15244 0
M  V30 8535 H 798.854 0.0925415 -5.48822 0
M  V30 8536 H 799.115 1.289 -4.22891 0
M  V30 8537 N 798.174 1.49689 -0.493057 0
M  V30 8538 C 799.59 1.58907 -0.148526 0
M  V30 8539 C 799.79 1.4991 1.34645 0
M  V30 8540 O 798.846 1.36893 2.12171 0
M  V30 8541 C 800.159 2.91996 -0.718265 0
M  V30 8542 C 801.707 3.05443 -0.683658 0
M  V30 8543 C 802.182 4.41138 -1.23132 0
M  V30 8544 N 803.673 4.47608 -1.19167 0
M  V30 8545 C 804.408 5.51038 -1.5857 0
M  V30 8546 N 803.904 6.61612 -2.05528 0
M  V30 8547 N 805.697 5.41706 -1.50036 0
M  V30 8548 H 797.848 1.5378 -1.46511 0
M  V30 8549 H 800.111 0.727996 -0.607228 0
M  V30 8550 H 799.817 3.04123 -1.7664 0
M  V30 8551 H 799.691 3.76798 -0.17419 0
M  V30 8552 H 802.078 2.92949 0.355626 0
M  V30 8553 H 802.159 2.22344 -1.26479 0
M  V30 8554 H 801.803 4.54382 -2.26935 0
M  V30 8555 H 801.733 5.22864 -0.626201 0
M  V30 8556 H 804.224 3.68274 -0.847524 0
M  V30 8557 H 804.537 7.36622 -2.33685 0
M  V30 8558 H 802.882 6.62674 -2.09497 0
M  V30 8559 H 806.073 4.54212 -1.13176 0
M  V30 8560 H 806.246 6.22188 -1.81068 0
M  V30 8561 N 799.652 0.226554 1.55963 0
M  V30 8562 C 800.615 -0.668015 2.19249 0
M  V30 8563 C 801.615 -1.11794 1.1558 0
M  V30 8564 O 802.805 -1.02593 1.40784 0
M  V30 8565 C 799.937 -1.91571 2.81981 0
M  V30 8566 H 801.13 -0.116175 2.99675 0
M  V30 8567 H 798.683 -0.0230497 1.56283 0
M  V30 8568 H 799.418 -2.50929 2.05439 0
M  V30 8569 H 799.203 -1.6015 3.57903 0
M  V30 8570 H 800.693 -2.55294 3.30477 0
M  V30 8571 N 801.13 -1.57531 -0.0467866 0
M  V30 8572 C 802.379 -1.87632 -0.740069 0
M  V30 8573 C 802.692 -0.822691 -1.77457 0
M  V30 8574 O 803.898 -1.01235 -2.5192 0
M  V30 8575 C 802.354 -3.32917 -1.36727 0
M  V30 8576 C 801.962 -4.46469 -0.370035 0
M  V30 8577 C 803.706 -3.72189 -2.04146 0
M  V30 8578 C 801.613 -5.82806 -1.00457 0
M  V30 8579 H 800.543 -0.70002 -0.280158 0
M  V30 8580 H 803.194 -1.83499 0.00607151 0
M  V30 8581 H 801.576 -3.31739 -2.16252 0
M  V30 8582 H 802.75 -4.59085 0.397217 0
M  V30 8583 H 801.065 -4.15914 0.201079 0
M  V30 8584 H 803.662 -4.71357 -2.52441 0
M  V30 8585 H 804.005 -3.03268 -2.85192 0
M  V30 8586 H 804.538 -3.75465 -1.3142 0
M  V30 8587 H 801.277 -6.55083 -0.233907 0
M  V30 8588 H 800.797 -5.73944 -1.74209 0
M  V30 8589 H 802.476 -6.28961 -1.51713 0
M  V30 8590 N 802.608 0.318715 -1.54344 0
M  V30 8591 C 803.54 1.41364 -1.80413 0
M  V30 8592 C 804.553 1.47627 -0.686294 0
M  V30 8593 O 805.742 1.50264 -0.963486 0
M  V30 8594 C 802.842 2.79867 -1.91123 0
M  V30 8595 C 802.015 2.96749 -3.21339 0
M  V30 8596 C 801.074 4.15642 -3.22689 0
M  V30 8597 O 800.1 4.08571 -3.96306 0
M  V30 8598 N 801.302 5.25416 -2.46817 0
M  V30 8599 H 804.067 1.19363 -2.74905 0
M  V30 8600 H 801.628 0.508722 -1.537 0
M  V30 8601 H 803.62 3.57619 -1.89448 0
M  V30 8602 H 802.19 2.94896 -1.03706 0
M  V30 8603 H 801.41 2.06257 -3.35934 0
M  V30 8604 H 802.698 3.04927 -4.07304 0
M  V30 8605 H 802.096 5.34037 -1.86605 0
M  V30 8606 H 800.653 6.01569 -2.50915 0
M  V30 8607 N 804.086 1.46499 0.581025 0
M  V30 8608 C 805.036 1.53606 1.68491 0
M  V30 8609 C 806.02 0.396853 1.55929 0
M  V30 8610 O 807.212 0.645366 1.64815 0
M  V30 8611 C 804.341 1.53089 3.07276 0
M  V30 8612 C 803.427 2.72309 3.25128 0
M  V30 8613 N 803.818 3.97216 3.13134 0
M  V30 8614 C 802.116 2.68568 3.56072 0
M  V30 8615 C 802.817 4.7693 3.33036 0
M  V30 8616 N 801.793 4.08833 3.58269 0
M  V30 8617 H 805.595 2.47976 1.5775 0
M  V30 8618 H 803.109 1.42161 0.785104 0
M  V30 8619 H 805.106 1.56268 3.86505 0
M  V30 8620 H 803.766 0.597969 3.19146 0
M  V30 8621 H 804.777 4.28439 2.90964 0
M  V30 8622 H 801.454 1.84307 3.74616 0
M  V30 8623 H 802.844 5.85879 3.28932 0
M  V30 8624 N 805.565 -0.825799 1.34232 0
M  V30 8625 C 806.495 -1.95151 1.28212 0
M  V30 8626 C 807.476 -1.69345 0.160123 0
M  V30 8627 O 808.661 -1.90983 0.352019 0
M  V30 8628 C 805.791 -3.31554 1.03388 0
M  V30 8629 C 804.745 -3.71793 2.12023 0
M  V30 8630 C 804.071 -5.06147 1.72392 0
M  V30 8631 C 805.371 -3.84193 3.53826 0
M  V30 8632 H 807.065 -2.00445 2.22401 0
M  V30 8633 H 804.611 -0.962996 1.07063 0
M  V30 8634 H 806.564 -4.09889 0.978225 0
M  V30 8635 H 805.288 -3.26551 0.0564142 0
M  V30 8636 H 803.947 -2.95731 2.16654 0
M  V30 8637 H 803.595 -4.97628 0.733137 0
M  V30 8638 H 803.295 -5.34041 2.451 0
M  V30 8639 H 804.819 -5.86943 1.68317 0
M  V30 8640 H 806.233 -4.52806 3.51624 0
M  V30 8641 H 804.63 -4.23538 4.2513 0
M  V30 8642 H 805.7 -2.86272 3.91377 0
M  V30 8643 N 807.043 -1.17915 -1.04565 0
M  V30 8644 C 807.973 -0.925033 -2.14395 0
M  V30 8645 C 808.954 0.135375 -1.6956 0
M  V30 8646 O 810.139 -0.0161774 -1.94193 0
M  V30 8647 C 807.269 -0.444469 -3.44444 0
M  V30 8648 C 806.223 -1.44478 -4.02877 0
M  V30 8649 C 805.549 -0.821933 -5.28345 0
M  V30 8650 C 806.849 -2.81995 -4.39632 0
M  V30 8651 H 808.543 -1.84354 -2.35911 0
M  V30 8652 H 806.089 -0.887806 -1.13375 0
M  V30 8653 H 808.042 -0.254078 -4.20633 0
M  V30 8654 H 806.766 0.509592 -3.226 0
M  V30 8655 H 805.425 -1.62203 -3.28764 0
M  V30 8656 H 805.073 0.139161 -5.02807 0
M  V30 8657 H 804.773 -1.48976 -5.68401 0
M  V30 8658 H 806.297 -0.641959 -6.07216 0
M  V30 8659 H 807.711 -2.67952 -5.06828 0
M  V30 8660 H 806.108 -3.45414 -4.90723 0
M  V30 8661 H 807.178 -3.35927 -3.49687 0
M  V30 8662 N 808.521 1.23394 -0.980386 0
M  V30 8663 C 809.468 2.24859 -0.520298 0
M  V30 8664 C 810.438 1.60144 0.440821 0
M  V30 8665 O 811.623 1.87593 0.348369 0
M  V30 8666 C 808.763 3.44675 0.171145 0
M  V30 8667 C 807.876 4.23947 -0.830233 0
M  V30 8668 C 807.011 5.31079 -0.113597 0
M  V30 8669 C 806.05 6.02058 -1.10419 0
M  V30 8670 N 805.187 7.00862 -0.416709 0
M  V30 8671 H 810.027 2.63579 -1.39032 0
M  V30 8672 H 807.564 1.29556 -0.696682 0
M  V30 8673 H 809.522 4.13024 0.588838 0
M  V30 8674 H 808.152 3.06755 1.00504 0
M  V30 8675 H 807.204 3.55016 -1.36631 0
M  V30 8676 H 808.516 4.72945 -1.58508 0
M  V30 8677 H 807.67 6.05622 0.36146 0
M  V30 8678 H 806.409 4.83022 0.673854 0
M  V30 8679 H 805.414 5.26307 -1.59 0
M  V30 8680 H 806.639 6.52203 -1.8923 0
M  V30 8681 H 804.585 6.55057 0.351535 0
M  V30 8682 H 804.502 7.47804 -1.11021 0
M  V30 8683 H 805.77 7.79492 0.0359606 0
M  V30 8684 N 809.999 0.752036 1.385 0
M  V30 8685 C 811.224 0.316993 2.04963 0
M  V30 8686 C 811.649 -1.04582 1.56346 0
M  V30 8687 O 811.007 -1.66616 0.714755 0
M  V30 8688 C 811.055 0.347235 3.58924 0
M  V30 8689 O 810.159 -0.659296 4.07096 0
M  V30 8690 H 809.5 0.140652 0.648932 0
M  V30 8691 H 812.03 1.02272 1.77205 0
M  V30 8692 H 812.04 0.19757 4.07521 0
M  V30 8693 H 810.715 1.34157 3.93668 0
M  V30 8694 H 809.292 -0.474371 3.6987 0
M  V30 8695 N 811.477 -1.49425 0.500989 0
M  V30 8696 C 812.725 -2.02053 -0.0434495 0
M  V30 8697 C 813.046 -1.38285 -1.37486 0
M  V30 8698 O 812.316 -0.538171 -1.88363 0
M  V30 8699 H 810.896 -0.746757 -0.0190469 0
M  V30 8700 H 813.558 -1.83449 0.658227 0
M  V30 8701 H 812.654 -3.11619 -0.173129 0
M  V30 8702 N 812.955 -0.234822 -1.55841 0
M  V30 8703 C 813.918 0.656378 -2.196 0
M  V30 8704 C 814.918 1.11179 -1.16171 0
M  V30 8705 O 816.108 1.01845 -1.41326 0
M  V30 8706 C 813.24 1.90072 -2.82993 0
M  V30 8707 H 814.433 0.100281 -2.99732 0
M  V30 8708 H 811.986 0.0147613 -1.56293 0
M  V30 8709 H 812.721 2.49836 -2.06767 0
M  V30 8710 H 812.506 1.5825 -3.58747 0
M  V30 8711 H 813.996 2.53538 -3.31826 0
M  V30 8712 N 814.433 1.57553 0.0384317 0
M  V30 8713 C 815.679 1.89121 0.732199 0
M  V30 8714 C 816.012 0.831404 1.75503 0
M  V30 8715 O 815.287 -0.154642 1.93884 0
M  V30 8716 C 815.57 3.31338 1.41021 0
M  V30 8717 C 815.423 4.48004 0.401532 0
M  V30 8718 C 816.742 3.72318 2.34665 0
M  V30 8719 H 813.861 0.687819 0.264715 0
M  V30 8720 H 816.503 1.89999 -0.00496279 0
M  V30 8721 H 814.653 3.3072 2.03854 0
M  V30 8722 H 816.325 4.60755 -0.224159 0
M  V30 8723 H 814.568 4.32895 -0.280092 0
M  V30 8724 H 815.239 5.44377 0.91423 0
M  V30 8725 H 817.715 3.74243 1.81883 0
M  V30 8726 H 816.591 4.72652 2.7909 0
M  V30 8727 H 816.852 3.04062 3.20934 0
M  V30 8728 N 815.911 -0.310526 1.54511 0
M  V30 8729 C 817.322 -0.884142 1.64438 0
M  V30 8730 C 817.673 -1.88425 0.546855 0
M  V30 8731 O 816.798 -2.14049 -0.31811 0
M  V30 8732 C 817.393 -1.6104 2.9808 0
M  V30 8733 C 815.952 -2.13255 3.1016 0
M  V30 8734 C 815.099 -0.96213 2.60074 0
M  V30 8735 H 818.05 -0.0877666 1.58457 0
M  V30 8736 H 818.071 -2.47541 2.8897 0
M  V30 8737 H 817.583 -0.882255 3.77939 0
M  V30 8738 H 815.684 -2.89145 2.35002 0
M  V30 8739 H 815.797 -2.37361 4.16169 0
M  V30 8740 H 814.161 -1.34501 2.16291 0
M  V30 8741 H 814.944 -0.248098 3.42402 0
M  V30 8742 N 817.389 -1.46805 -0.573248 0
M  V30 8743 C 818.666 -1.43082 -1.33368 0
M  V30 8744 C 819.046 -0.119252 -2.10763 0
M  V30 8745 O 818.394 0.899239 -2.10062 0
M  V30 8746 C 818.604 -2.66643 -2.25172 0
M  V30 8747 C 819.952 -3.13188 -2.86702 0
M  V30 8748 O 820.976 -2.67258 -2.35482 0
M  V30 8749 O 819.835 -3.92994 -3.79761 0
M  V30 8750 H 816.929 -0.569451 -0.599712 0
M  V30 8751 H 819.475 -1.58984 -0.59348 0
M  V30 8752 H 818.247 -3.53649 -1.67475 0
M  V30 8753 H 817.87 -2.53247 -3.06516 0
M  V30 8754 N 818.867 0.818669 -1.34668 0
M  V30 8755 C 819.83 1.9114 -1.26483 0
M  V30 8756 C 820.83 1.598 -0.179044 0
M  V30 8757 O 822.02 1.6876 -0.431952 0
M  V30 8758 C 819.152 3.27285 -0.95381 0
M  V30 8759 H 820.345 1.9982 -2.23634 0
M  V30 8760 H 817.898 1.01314 -1.19018 0
M  V30 8761 H 818.633 3.24297 0.0143428 0
M  V30 8762 H 818.418 3.51416 -1.73924 0
M  V30 8763 H 819.908 4.07299 -0.921827 0
M  V30 8764 N 820.346 1.18468 1.03938 0
M  V30 8765 C 821.276 0.936389 2.13902 0
M  V30 8766 C 822.257 -0.126381 1.6963 0
M  V30 8767 O 823.442 0.0264757 1.94182 0
M  V30 8768 C 820.572 0.462729 3.44204 0
M  V30 8769 C 819.526 1.46613 4.02105 0
M  V30 8770 C 818.852 0.84994 5.27902 0
M  V30 8771 C 820.152 2.84323 4.3813 0
M  V30 8772 H 821.846 1.85602 2.3493 0
M  V30 8773 H 819.392 0.893806 1.12903 0
M  V30 8774 H 821.345 0.276382 4.20493 0
M  V30 8775 H 820.069 -0.492477 3.22866 0
M  V30 8776 H 818.728 1.63944 3.27899 0
M  V30 8777 H 818.376 -0.112493 5.02874 0
M  V30 8778 H 818.076 1.51988 5.67603 0
M  V30 8779 H 819.6 0.674152 6.06867 0
M  V30 8780 H 821.014 2.70636 5.054 0
M  V30 8781 H 819.411 3.48012 4.88884 0
M  V30 8782 H 820.481 3.37776 3.47901 0
M  V30 8783 N 821.824 -1.22873 0.986916 0
M  V30 8784 C 823.101 -1.86939 0.575589 0
M  V30 8785 C 823.481 -1.88656 -0.947205 0
M  V30 8786 O 822.829 -1.3728 -1.82665 0
M  V30 8787 C 823.039 -3.28117 1.18914 0
M  V30 8788 C 824.387 -4.04659 1.28593 0
M  V30 8789 O 825.411 -3.3736 1.14308 0
M  V30 8790 O 824.27 -5.25112 1.51391 0
M  V30 8791 H 821.364 -0.803748 0.194724 0
M  V30 8792 H 823.91 -1.30698 1.08241 0
M  V30 8793 H 822.682 -3.21468 2.231 0
M  V30 8794 H 822.305 -3.91956 0.667535 0
M  V30 8795 N 823.302 -0.75937 -1.38099 0
M  V30 8796 C 824.234 -0.0956547 -2.29 0
M  V30 8797 C 825.247 0.677561 -1.4803 0
M  V30 8798 O 826.436 0.517696 -1.70828 0
M  V30 8799 C 823.536 0.88844 -3.27047 0
M  V30 8800 C 822.709 0.171652 -4.37063 0
M  V30 8801 C 821.768 1.06733 -5.15262 0
M  V30 8802 O 820.794 0.535698 -5.66674 0
M  V30 8803 N 821.996 2.39486 -5.28797 0
M  V30 8804 H 824.761 -0.876354 -2.86601 0
M  V30 8805 H 822.322 -0.61065 -1.49942 0
M  V30 8806 H 824.314 1.49079 -3.76241 0
M  V30 8807 H 822.884 1.57018 -2.70304 0
M  V30 8808 H 822.104 -0.611473 -3.89429 0
M  V30 8809 H 823.392 -0.324121 -5.07767 0
M  V30 8810 H 822.79 2.85127 -4.88589 0
M  V30 8811 H 821.347 2.94758 -5.81344 0
M  V30 8812 N 824.78 1.49157 -0.508906 0
M  V30 8813 C 826.005 2.07376 0.0315182 0
M  V30 8814 C 826.43 1.36575 1.2934 0
M  V30 8815 O 825.788 0.424963 1.76249 0
M  V30 8816 C 825.836 3.59661 0.260118 0
M  V30 8817 O 824.94 3.90255 1.33322 0
M  V30 8818 H 824.281 0.663334 -0.029739 0
M  V30 8819 H 826.811 1.91857 -0.710791 0
M  V30 8820 H 826.821 4.05056 0.489225 0
M  V30 8821 H 825.496 4.10601 -0.661794 0
M  V30 8822 H 824.073 3.56661 1.08844 0
M  V30 8823 N 826.258 0.243083 1.55714 0
M  V30 8824 C 827.506 -0.381964 1.98458 0
M  V30 8825 C 827.827 -1.58745 1.13247 0
M  V30 8826 O 827.097 -1.94723 0.214384 0
M  V30 8827 H 825.677 -0.144114 0.732967 0
M  V30 8828 H 828.339 0.340985 1.91894 0
M  V30 8829 H 827.435 -0.693702 3.04293 0
M  V30 8830 N 827.736 -1.57571 -0.0300757 0
M  V30 8831 C 828.966 -1.93204 -0.731828 0
M  V30 8832 C 829.374 -0.841156 -1.69473 0
M  V30 8833 O 828.717 0.191231 -1.82702 0
M  V30 8834 C 828.779 -3.2463 -1.54453 0
M  V30 8835 C 828.443 -4.50862 -0.746507 0
M  V30 8836 C 829.44 -5.19879 -0.0472309 0
M  V30 8837 C 827.125 -4.9738 -0.701347 0
M  V30 8838 C 829.119 -6.33692 0.686518 0
M  V30 8839 C 826.806 -6.11089 0.036148 0
M  V30 8840 C 827.804 -6.791 0.728841 0
M  V30 8841 O 827.492 -7.90635 1.45436 0
M  V30 8842 H 827.224 -0.6423 -0.210775 0
M  V30 8843 H 829.778 -2.05398 0.00804194 0
M  V30 8844 H 828.008 -3.0876 -2.32818 0
M  V30 8845 H 829.697 -3.45597 -2.1288 0
M  V30 8846 H 830.463 -4.84945 -0.0731582 0
M  V30 8847 H 826.342 -4.44288 -1.23001 0
M  V30 8848 H 829.886 -6.86711 1.22773 0
M  V30 8849 H 825.783 -6.45468 0.064002 0
M  V30 8850 H 826.551 -8.06988 1.36794 0
M  V30 8851 N 829.214 0.302327 -1.54673 0
M  V30 8852 C 830.462 1.03565 -1.73547 0
M  V30 8853 C 830.783 1.87843 -0.523448 0
M  V30 8854 O 830.053 1.90367 0.462295 0
M  V30 8855 H 828.633 0.385358 -0.639928 0
M  V30 8856 H 831.295 0.333632 -1.92023 0
M  V30 8857 H 830.391 1.68952 -2.62415 0
M  V30 8858 N 830.692 1.47107 0.565454 0
M  V30 8859 C 832.103 1.47266 1.1476 0
M  V30 8860 C 832.454 0.222841 1.9493 0
M  V30 8861 O 831.579 -0.672862 2.05673 0
M  V30 8862 C 832.174 2.66822 2.08785 0
M  V30 8863 C 830.733 2.69967 2.62288 0
M  V30 8864 C 829.88 2.40236 1.38499 0
M  V30 8865 H 832.831 1.54736 0.352479 0
M  V30 8866 H 832.852 2.43323 2.92531 0
M  V30 8867 H 832.364 3.5777 1.50408 0
M  V30 8868 H 830.465 1.83137 3.24487 0
M  V30 8869 H 830.578 3.70426 3.03845 0
M  V30 8870 H 828.942 1.90648 1.68895 0
M  V30 8871 H 829.725 3.33381 0.819274 0
M  V30 8872 N 832.17 -0.811516 1.35101 0
M  V30 8873 C 833.1 -1.9378 1.30275 0
M  V30 8874 C 834.081 -1.69165 0.178075 0
M  V30 8875 O 835.266 -1.90599 0.372256 0
M  V30 8876 C 832.396 -3.30439 1.06899 0
M  V30 8877 C 831.35 -3.69523 2.15955 0
M  V30 8878 C 830.676 -5.0429 1.77751 0
M  V30 8879 C 831.976 -3.80419 3.57881 0
M  V30 8880 H 833.67 -1.98075 2.24514 0
M  V30 8881 H 831.216 -0.951586 1.08078 0
M  V30 8882 H 833.169 -4.08828 1.02164 0
M  V30 8883 H 831.893 -3.26473 0.0910462 0
M  V30 8884 H 830.552 -2.93416 2.19778 0
M  V30 8885 H 830.2 -4.96823 0.785876 0
M  V30 8886 H 829.9 -5.31411 2.5075 0
M  V30 8887 H 831.424 -5.85125 1.74533 0
M  V30 8888 H 832.838 -4.49051 3.56407 0
M  V30 8889 H 831.235 -4.19005 4.29598 0
M  V30 8890 H 832.305 -2.82105 3.94391 0
M  V30 8891 N 833.648 -1.19017 -1.03309 0
M  V30 8892 C 834.598 -0.89194 -2.0983 0
M  V30 8893 C 835.582 0.14151 -1.60277 0
M  V30 8894 O 836.774 -0.0635946 -1.76886 0
M  V30 8895 C 833.903 -0.427793 -3.40624 0
M  V30 8896 C 832.989 -1.49374 -3.96923 0
M  V30 8897 N 833.38 -2.71213 -4.26939 0
M  V30 8898 C 831.678 -1.35605 -4.24885 0
M  V30 8899 C 832.379 -3.39849 -4.72099 0
M  V30 8900 N 831.355 -2.67239 -4.73375 0
M  V30 8901 H 835.157 -1.81801 -2.30923 0
M  V30 8902 H 832.671 -1.08171 -1.21131 0
M  V30 8903 H 834.668 -0.195608 -4.16441 0
M  V30 8904 H 833.328 0.491848 -3.20953 0
M  V30 8905 H 834.339 -3.08014 -4.16351 0
M  V30 8906 H 831.016 -0.499537 -4.14501 0
M  V30 8907 H 832.406 -4.44018 -5.04279 0
M  V30 8908 N 835.127 1.22348 -0.993418 0
M  V30 8909 C 836.355 1.95125 -0.688021 0
M  V30 8910 C 836.77 1.73377 0.747388 0
M  V30 8911 O 836.127 1.03317 1.50439 0
M  V30 8912 C 836.178 3.47819 -0.985097 0
M  V30 8913 O 835.899 3.68838 -2.3641 0
M  V30 8914 C 837.4 4.37779 -0.697474 0
M  V30 8915 H 834.62 0.62087 -0.254481 0
M  V30 8916 H 837.164 1.55485 -1.32833 0
M  V30 8917 H 835.319 3.85426 -0.390583 0
M  V30 8918 H 835.733 4.63032 -2.46377 0
M  V30 8919 H 837.207 5.43666 -0.955604 0
M  V30 8920 H 837.684 4.37651 0.368524 0
M  V30 8921 H 838.29 4.05799 -1.27306 0
M  V30 8922 N 836.605 0.766683 1.37694 0
M  V30 8923 C 837.568 0.155849 2.2867 0
M  V30 8924 C 838.568 -0.633509 1.47795 0
M  V30 8925 O 839.758 -0.457844 1.68076 0
M  V30 8926 C 836.89 -0.786965 3.31692 0
M  V30 8927 H 838.083 0.957748 2.84196 0
M  V30 8928 H 835.636 0.534554 1.46875 0
M  V30 8929 H 836.371 -1.61406 2.8128 0
M  V30 8930 H 836.156 -0.223182 3.91464 0
M  V30 8931 H 837.646 -1.20994 3.99688 0
M  V30 8932 N 838.083 -1.48885 0.516809 0
M  V30 8933 C 839.046 -2.27916 -0.242256 0
M  V30 8934 C 840.046 -1.34601 -0.879735 0
M  V30 8935 O 841.236 -1.57616 -0.74182 0
M  V30 8936 C 838.368 -3.13067 -1.34914 0
M  V30 8937 H 839.561 -2.96483 0.451444 0
M  V30 8938 H 837.114 -1.5391 0.272294 0
M  V30 8939 H 837.849 -2.49102 -2.07651 0
M  V30 8940 H 837.634 -3.81695 -0.897313 0
M  V30 8941 H 839.124 -3.72716 -1.88341 0
M  V30 8942 N 839.561 -0.251338 -1.55583 0
M  V30 8943 C 840.524 0.63305 -2.20284 0
M  V30 8944 C 841.524 1.09941 -1.17344 0
M  V30 8945 O 842.714 1.00341 -1.42399 0
M  V30 8946 C 839.846 1.8706 -2.84993 0
M  V30 8947 H 841.039 0.0684846 -2.99822 0
M  V30 8948 H 838.592 -0.00181653 -1.563 0
M  V30 8949 H 839.327 2.47629 -2.09405 0
M  V30 8950 H 839.112 1.54436 -3.60405 0
M  V30 8951 H 840.602 2.50004 -3.34496 0
M  V30 8952 N 841.039 1.57585 0.0217189 0
M  V30 8953 C 842.455 1.55072 0.377484 0
M  V30 8954 C 842.655 0.978423 1.76151 0
M  V30 8955 O 841.711 0.602688 2.45202 0
M  V30 8956 C 843.024 2.99462 0.272605 0
M  V30 8957 C 844.572 3.11047 0.349148 0
M  V30 8958 C 845.047 4.57182 0.273636 0
M  V30 8959 N 846.538 4.62007 0.332206 0
M  V30 8960 C 847.273 5.72631 0.296782 0
M  V30 8961 N 846.769 6.92472 0.21322 0
M  V30 8962 N 848.562 5.61028 0.347053 0
M  V30 8963 H 840.713 1.93133 -0.883925 0
M  V30 8964 H 842.976 0.886151 -0.33681 0
M  V30 8965 H 842.682 3.45088 -0.67878 0
M  V30 8966 H 842.556 3.61901 1.06335 0
M  V30 8967 H 844.943 2.65364 1.29097 0
M  V30 8968 H 845.024 2.51425 -0.471085 0
M  V30 8969 H 844.668 5.03534 -0.664548 0
M  V30 8970 H 844.598 5.14724 1.11207 0
M  V30 8971 H 847.089 3.75788 0.399003 0
M  V30 8972 H 847.402 7.72563 0.191492 0
M  V30 8973 H 845.747 6.94769 0.179161 0
M  V30 8974 H 848.938 4.66298 0.410378 0
M  V30 8975 H 849.111 6.47229 0.315979 0
M  V30 8976 N 842.517 -0.29412 1.54831 0
M  V30 8977 C 843.765 -1.02643 1.74094 0
M  V30 8978 C 844.086 -1.87563 0.533402 0
M  V30 8979 O 843.356 -1.9061 -0.452192 0
M  V30 8980 H 841.936 -0.381959 0.641963 0
M  V30 8981 H 844.598 -0.323444 1.92197 0
M  V30 8982 H 843.694 -1.67558 2.63307 0
M  V30 8983 N 843.995 -1.47404 -0.557645 0
M  V30 8984 C 844.942 -1.59859 -1.66475 0
M  V30 8985 C 845.912 -0.441644 -1.60121 0
M  V30 8986 O 847.097 -0.661641 -1.78961 0
M  V30 8987 C 844.237 -1.61843 -3.04797 0
M  V30 8988 C 843.35 -2.8845 -3.2159 0
M  V30 8989 C 842.485 -2.81773 -4.50308 0
M  V30 8990 C 841.524 -4.03208 -4.60532 0
M  V30 8991 N 840.661 -3.94769 -5.80604 0
M  V30 8992 H 845.501 -2.54415 -1.55168 0
M  V30 8993 H 843.038 -1.26194 -0.755876 0
M  V30 8994 H 844.996 -1.60976 -3.84893 0
M  V30 8995 H 843.626 -0.707997 -3.1494 0
M  V30 8996 H 842.678 -2.99186 -2.34929 0
M  V30 8997 H 843.99 -3.78379 -3.25009 0
M  V30 8998 H 843.144 -2.79153 -5.38663 0
M  V30 8999 H 841.883 -1.89527 -4.49367 0
M  V30 9000 H 840.888 -4.06133 -3.70589 0
M  V30 9001 H 842.113 -4.9658 -4.63233 0
M  V30 9002 H 840.059 -3.05326 -5.80613 0
M  V30 9003 H 839.976 -4.78375 -5.854 0
M  V30 9004 H 841.244 -3.96165 -6.71322 0
M  V30 9005 N 845.473 0.80434 -1.35529 0
M  V30 9006 C 846.703 1.59052 -1.31856 0
M  V30 9007 C 847.111 1.88905 0.105549 0
M  V30 9008 O 846.454 1.49422 1.06858 0
M  V30 9009 C 846.516 2.94626 -2.06 0
M  V30 9010 C 846.18 2.87576 -3.55175 0
M  V30 9011 C 847.177 2.60856 -4.49722 0
M  V30 9012 C 844.862 3.06623 -3.97854 0
M  V30 9013 C 846.856 2.53262 -5.84925 0
M  V30 9014 C 844.543 2.98652 -5.33151 0
M  V30 9015 C 845.541 2.72007 -6.26499 0
M  V30 9016 O 845.229 2.64003 -7.59314 0
M  V30 9017 H 844.961 0.500486 -0.454411 0
M  V30 9018 H 847.515 1.0074 -1.78999 0
M  V30 9019 H 845.745 3.5493 -1.53498 0
M  V30 9020 H 847.434 3.55785 -1.95376 0
M  V30 9021 H 848.2 2.45858 -4.18066 0
M  V30 9022 H 844.079 3.26372 -3.2558 0
M  V30 9023 H 847.623 2.32386 -6.57756 0
M  V30 9024 H 843.52 3.13208 -5.64421 0
M  V30 9025 H 844.288 2.79595 -7.69265 0
M  V30 9026 N 846.951 1.19563 1.02676 0
M  V30 9027 C 847.881 0.959024 2.12897 0
M  V30 9028 C 848.862 -0.108382 1.69754 0
M  V30 9029 O 850.047 0.0470698 1.94143 0
M  V30 9030 C 847.177 0.499211 3.43693 0
M  V30 9031 C 846.131 1.5087 4.00528 0
M  V30 9032 C 845.457 0.905884 5.2697 0
M  V30 9033 C 846.757 2.88954 4.3509 0
M  V30 9034 H 848.451 1.88084 2.32948 0
M  V30 9035 H 845.997 0.905731 1.11949 0
M  V30 9036 H 847.95 0.320965 4.20176 0
M  V30 9037 H 846.674 -0.458205 3.2337 0
M  V30 9038 H 845.333 1.67413 3.26142 0
M  V30 9039 H 844.981 -0.0591506 5.02965 0
M  V30 9040 H 844.681 1.58 5.65959 0
M  V30 9041 H 846.205 0.73848 6.06118 0
M  V30 9042 H 847.619 2.75981 5.02501 0
M  V30 9043 H 846.016 3.53177 4.85166 0
M  V30 9044 H 847.086 3.41447 3.44299 0
M  V30 9045 N 848.429 -1.21819 0.999893 0
M  V30 9046 C 849.678 -1.90066 0.675108 0
M  V30 9047 C 849.991 -1.78624 -0.79705 0
M  V30 9048 O 851.197 -2.41851 -1.23371 0
M  V30 9049 C 849.653 -3.40795 1.15702 0
M  V30 9050 C 849.261 -3.60859 2.6549 0
M  V30 9051 C 851.005 -4.147 0.906889 0
M  V30 9052 C 848.912 -5.05324 3.07248 0
M  V30 9053 H 847.842 -0.711763 0.248815 0
M  V30 9054 H 850.493 -1.3792 1.21038 0
M  V30 9055 H 848.875 -3.92164 0.549832 0
M  V30 9056 H 850.049 -3.19951 3.31614 0
M  V30 9057 H 848.364 -3.00298 2.88461 0
M  V30 9058 H 850.961 -5.21187 1.1945 0
M  V30 9059 H 851.304 -4.16004 -0.156923 0
M  V30 9060 H 851.837 -3.69379 1.47662 0
M  V30 9061 H 848.576 -5.09164 4.12834 0
M  V30 9062 H 848.096 -5.47108 2.45832 0
M  V30 9063 H 849.775 -5.73797 2.98941 0
M  V30 9064 N 849.908 -0.773975 -1.37286 0
M  V30 9065 C 851.148 -0.344505 -2.01476 0
M  V30 9066 C 851.512 1.05966 -1.6011 0
M  V30 9067 O 852.713 1.58937 -2.16778 0
M  V30 9068 C 850.984 -0.485816 -3.54083 0
M  V30 9069 S 852.543 -0.141939 -4.3857 0
M  V30 9070 H 849.361 -0.13243 -0.698558 0
M  V30 9071 H 851.963 -1.00908 -1.67445 0
M  V30 9072 H 850.667 -1.50835 -3.81677 0
M  V30 9073 H 850.198 0.195232 -3.92915 0
M  V30 9074 H 852.213 1.06177 -4.84707 0
M  V30 9075 N 851.386 1.48609 -0.524698 0
M  V30 9076 C 852.333 2.29539 0.240956 0
M  V30 9077 C 853.303 1.37033 0.938681 0
M  V30 9078 O 854.488 1.65996 0.940737 0
M  V30 9079 C 851.628 3.20278 1.28514 0
M  V30 9080 C 850.741 4.27858 0.596798 0
M  V30 9081 C 849.876 5.05784 1.62346 0
M  V30 9082 C 848.915 6.05173 0.918287 0
M  V30 9083 N 848.052 6.76176 1.89025 0
M  V30 9084 H 852.892 2.945 -0.455368 0
M  V30 9085 H 850.429 1.45188 -0.236403 0
M  V30 9086 H 852.387 3.71281 1.90279 0
M  V30 9087 H 851.017 2.57251 1.94992 0
M  V30 9088 H 850.069 3.80162 -0.134668 0
M  V30 9089 H 851.381 4.98782 0.0428506 0
M  V30 9090 H 850.535 5.60775 2.31553 0
M  V30 9091 H 849.274 4.34687 2.2113 0
M  V30 9092 H 848.279 5.49391 0.21212 0
M  V30 9093 H 849.504 6.78265 0.336633 0
M  V30 9094 H 847.45 6.07834 2.46726 0
M  V30 9095 H 847.367 7.43157 1.3876 0
M  V30 9096 H 848.635 7.35759 2.57446 0
M  V30 9097 N 852.864 0.259585 1.55447 0
M  V30 9098 C 853.797 -0.675542 2.17972 0
M  V30 9099 C 854.775 -1.16362 1.13572 0
M  V30 9100 O 855.959 -1.23944 1.42021 0
M  V30 9101 C 853.086 -1.91952 2.79056 0
M  V30 9102 C 852.132 -1.56824 3.96621 0
M  V30 9103 S 852.965 -0.659846 5.31419 0
M  V30 9104 C 854.121 -1.91255 5.95963 0
M  V30 9105 H 854.354 -0.144236 2.9695 0
M  V30 9106 H 851.887 0.0439448 1.54337 0
M  V30 9107 H 853.845 -2.63362 3.14882 0
M  V30 9108 H 852.506 -2.42196 2 0
M  V30 9109 H 851.699 -2.49348 4.37997 0
M  V30 9110 H 851.301 -0.934472 3.62138 0
M  V30 9111 H 853.593 -2.85834 6.14252 0
M  V30 9112 H 854.536 -1.54207 6.91105 0
M  V30 9113 H 854.944 -2.07042 5.25161 0
M  V30 9114 N 854.342 -1.57594 -0.0133615 0
M  V30 9115 C 855.272 -2.10611 -1.00823 0
M  V30 9116 C 856.253 -1.01217 -1.36708 0
M  V30 9117 O 857.438 -1.28827 -1.45318 0
M  V30 9118 C 854.568 -2.59844 -2.30431 0
M  V30 9119 C 853.522 -3.73644 -2.08745 0
M  V30 9120 C 852.848 -4.09141 -3.4425 0
M  V30 9121 C 854.148 -5.01454 -1.46086 0
M  V30 9122 H 855.842 -2.93985 -0.566849 0
M  V30 9123 H 853.388 -1.41423 -0.271219 0
M  V30 9124 H 855.341 -2.95557 -3.00373 0
M  V30 9125 H 854.065 -1.73573 -2.76658 0
M  V30 9126 H 852.724 -3.38303 -1.41232 0
M  V30 9127 H 852.372 -3.19914 -3.88155 0
M  V30 9128 H 852.072 -4.85802 -3.3056 0
M  V30 9129 H 853.596 -4.47402 -4.15528 0
M  V30 9130 H 855.01 -5.35024 -2.05966 0
M  V30 9131 H 853.407 -5.82832 -1.42924 0
M  V30 9132 H 854.477 -4.83003 -0.428471 0
M  V30 9133 N 855.82 0.285905 -1.54985 0
M  V30 9134 C 856.75 1.35752 -1.89983 0
M  V30 9135 C 857.731 1.52163 -0.760295 0
M  V30 9136 O 858.916 1.65421 -1.01733 0
M  V30 9137 C 856.046 2.71925 -2.16042 0
M  V30 9138 C 855 2.70261 -3.31878 0
M  V30 9139 C 854.326 4.09864 -3.43388 0
M  V30 9140 C 855.626 2.30667 -4.68604 0
M  V30 9141 H 857.32 1.06709 -2.79738 0
M  V30 9142 H 854.866 0.511884 -1.34595 0
M  V30 9143 H 856.819 3.46992 -2.39113 0
M  V30 9144 H 855.543 3.02523 -1.23074 0
M  V30 9145 H 854.202 1.97651 -3.08755 0
M  V30 9146 H 853.85 4.37664 -2.47909 0
M  V30 9147 H 853.55 4.09648 -4.21262 0
M  V30 9148 H 855.074 4.86689 -3.68736 0
M  V30 9149 H 856.488 2.95453 -4.91305 0
M  V30 9150 H 854.885 2.41637 -5.49301 0
M  V30 9151 H 855.955 1.25793 -4.68299 0
M  V30 9152 N 857.298 1.47698 0.54982 0
M  V30 9153 C 858.714 1.3338 0.876468 0
M  V30 9154 C 858.914 0.329837 1.98782 0
M  V30 9155 O 857.97 -0.256022 2.51199 0
M  V30 9156 C 859.283 2.72903 1.26272 0
M  V30 9157 C 860.831 2.81243 1.37373 0
M  V30 9158 C 861.306 4.21423 1.79351 0
M  V30 9159 N 862.797 4.24 1.86489 0
M  V30 9160 C 863.532 5.29386 2.20313 0
M  V30 9161 N 863.028 6.4507 2.527 0
M  V30 9162 N 864.821 5.16768 2.2115 0
M  V30 9163 H 856.972 2.11603 -0.183781 0
M  V30 9164 H 859.235 0.947798 -0.0195601 0
M  V30 9165 H 858.941 3.47836 0.519889 0
M  V30 9166 H 858.815 3.05151 2.21727 0
M  V30 9167 H 861.202 2.06577 2.10737 0
M  V30 9168 H 861.283 2.52639 0.400882 0
M  V30 9169 H 860.927 4.96597 1.06555 0
M  V30 9170 H 860.857 4.47456 2.77652 0
M  V30 9171 H 863.348 3.40547 1.63817 0
M  V30 9172 H 863.661 7.21236 2.77557 0
M  V30 9173 H 862.006 6.48377 2.50263 0
M  V30 9174 H 865.197 4.25416 1.95293 0
M  V30 9175 H 865.37 5.99004 2.4718 0
M  V30 9176 N 858.776 -0.797141 1.35954 0
M  V30 9177 C 860.006 -1.5835 1.32698 0
M  V30 9178 C 860.414 -1.88959 -0.0955298 0
M  V30 9179 O 859.757 -1.49987 -1.06064 0
M  V30 9180 C 859.819 -2.93529 2.0756 0
M  V30 9181 C 859.483 -2.85688 3.56695 0
M  V30 9182 C 860.48 -2.58467 4.51099 0
M  V30 9183 C 858.165 -3.04508 3.99475 0
M  V30 9184 C 860.159 -2.50157 5.8626 0
M  V30 9185 C 857.846 -2.9582 5.34728 0
M  V30 9186 C 858.844 -2.68681 6.27933 0
M  V30 9187 O 858.532 -2.59973 7.60703 0
M  V30 9188 H 858.264 -0.49807 0.457059 0
M  V30 9189 H 860.818 -0.997889 1.79531 0
M  V30 9190 H 859.048 -3.54111 1.55378 0
M  V30 9191 H 860.737 -3.54744 1.9726 0
M  V30 9192 H 861.503 -2.43638 4.19363 0
M  V30 9193 H 857.382 -3.24641 3.27306 0
M  V30 9194 H 860.926 -2.28894 6.58979 0
M  V30 9195 H 856.823 -3.10211 5.66074 0
M  V30 9196 H 857.591 -2.75511 7.70737 0
M  V30 9197 N 860.254 -1.20106 -1.0204 0
M  V30 9198 C 861.502 -1.0069 -1.75231 0
M  V30 9199 C 861.823 0.462491 -1.89436 0
M  V30 9200 O 861.093 1.33455 -1.4341 0
M  V30 9201 H 859.673 -0.369576 -0.649171 0
M  V30 9202 H 862.335 -1.51149 -1.23044 0
M  V30 9203 H 861.431 -1.46205 -2.75736 0
M  V30 9204 N 861.732 1.21287 -1.00634 0
M  V30 9205 C 862.695 2.21927 -0.572821 0
M  V30 9206 C 863.695 1.5691 0.351541 0
M  V30 9207 O 864.885 1.73623 0.141643 0
M  V30 9208 C 862.017 3.40501 0.164932 0
M  V30 9209 H 863.21 2.61795 -1.463 0
M  V30 9210 H 860.763 1.34571 -0.794998 0
M  V30 9211 H 861.498 3.06123 1.07049 0
M  V30 9212 H 861.283 3.88912 -0.498962 0
M  V30 9213 H 862.773 4.15103 0.455945 0
M  V30 9214 N 863.21 0.781244 1.36873 0
M  V30 9215 C 864.435 0.360398 2.04245 0
M  V30 9216 C 864.86 -1.01242 1.58529 0
M  V30 9217 O 864.218 -1.65063 0.749936 0
M  V30 9218 C 864.266 0.42329 3.58107 0
M  V30 9219 O 863.37 -0.572796 4.08403 0
M  V30 9220 H 862.711 0.154386 0.645803 0
M  V30 9221 H 865.241 1.06008 1.74996 0
M  V30 9222 H 865.251 0.283967 4.07011 0
M  V30 9223 H 863.926 1.42477 3.90734 0
M  V30 9224 H 862.503 -0.395809 3.70793 0
M  V30 9225 N 864.689 -1.48329 0.532571 0
M  V30 9226 C 865.619 -2.32485 -0.217511 0
M  V30 9227 C 866.6 -1.42255 -0.932598 0
M  V30 9228 O 867.785 -1.7114 -0.917873 0
M  V30 9229 C 864.915 -3.23509 -1.26329 0
M  V30 9230 C 863.869 -4.22784 -0.666191 0
M  V30 9231 C 863.195 -5.0296 -1.81482 0
M  V30 9232 C 864.495 -5.21031 0.363813 0
M  V30 9233 H 866.189 -2.95445 0.485014 0
M  V30 9234 H 863.735 -1.42075 0.234694 0
M  V30 9235 H 865.688 -3.81211 -1.79601 0
M  V30 9236 H 864.412 -2.58554 -1.99543 0
M  V30 9237 H 863.071 -3.66272 -0.15498 0
M  V30 9238 H 862.719 -4.34427 -2.5354 0
M  V30 9239 H 862.419 -5.70154 -1.4212 0
M  V30 9240 H 863.943 -5.63514 -2.35126 0
M  V30 9241 H 865.357 -5.73241 -0.0819079 0
M  V30 9242 H 863.754 -5.96292 0.674956 0
M  V30 9243 H 864.824 -4.6801 1.26865 0
M  V30 9244 N 866.167 -0.267825 -1.55308 0
M  V30 9245 C 867.077 0.633055 -2.25897 0
M  V30 9246 C 868.093 1.17613 -1.28231 0
M  V30 9247 O 869.269 1.20797 -1.61153 0
M  V30 9248 C 866.334 1.80397 -2.96071 0
M  V30 9249 C 865.395 1.29829 -4.09198 0
M  V30 9250 C 864.628 2.4134 -4.76016 0
M  V30 9251 O 864.851 3.60537 -4.42006 0
M  V30 9252 O 863.785 2.09909 -5.64111 0
M  V30 9253 H 867.611 0.0614381 -3.03638 0
M  V30 9254 H 865.196 -0.0355072 -1.49358 0
M  V30 9255 H 867.078 2.48685 -3.40197 0
M  V30 9256 H 865.753 2.36281 -2.21253 0
M  V30 9257 H 864.66 0.582086 -3.69544 0
M  V30 9258 H 865.993 0.785288 -4.85895 0
M  V30 9259 N 867.645 1.57599 0.00500368 0
M  V30 9260 C 868.575 2.11143 0.99705 0
M  V30 9261 C 869.556 1.0194 1.3617 0
M  V30 9262 O 870.741 1.29596 1.44632 0
M  V30 9263 C 867.871 2.61062 2.2905 0
M  V30 9264 C 866.825 3.74745 2.0676 0
M  V30 9265 C 866.151 4.10961 3.42075 0
M  V30 9266 C 867.451 5.02222 1.43424 0
M  V30 9267 H 869.145 2.94281 0.551251 0
M  V30 9268 H 866.691 1.41565 0.263715 0
M  V30 9269 H 868.644 2.97146 2.98801 0
M  V30 9270 H 867.368 1.75038 2.75734 0
M  V30 9271 H 866.027 3.39047 1.39436 0
M  V30 9272 H 865.675 3.21968 3.86453 0
M  V30 9273 H 865.375 4.87549 3.27979 0
M  V30 9274 H 866.899 4.49599 4.1315 0
M  V30 9275 H 868.313 5.36109 2.03125 0
M  V30 9276 H 866.71 5.83581 1.39831 0
M  V30 9277 H 867.78 4.83224 0.40285 0
M  V30 9278 N 869.123 -0.277682 1.55134 0
M  V30 9279 C 870.534 -0.849063 1.66276 0
M  V30 9280 C 870.885 -1.87223 0.5867 0
M  V30 9281 O 870.01 -2.14676 -0.272635 0
M  V30 9282 C 870.605 -1.54681 3.01429 0
M  V30 9283 C 869.164 -2.06628 3.14614 0
M  V30 9284 C 868.311 -0.906748 2.62056 0
M  V30 9285 H 871.262 -0.0541357 1.58608 0
M  V30 9286 H 871.283 -2.41356 2.94156 0
M  V30 9287 H 870.795 -0.80189 3.79725 0
M  V30 9288 H 868.896 -2.84095 2.41082 0
M  V30 9289 H 869.009 -2.2848 4.2111 0
M  V30 9290 H 867.373 -1.29882 2.19095 0
M  V30 9291 H 868.156 -0.175414 3.42852 0
M  V30 9292 N 870.601 -1.47988 -0.541979 0
M  V30 9293 C 871.829 -1.59034 -1.32347 0
M  V30 9294 C 872.244 -0.246123 -1.87189 0
M  V30 9295 O 871.601 0.762889 -1.6579 0
M  V30 9296 C 871.652 -2.62759 -2.48274 0
M  V30 9297 O 871.373 -3.91963 -1.95695 0
M  V30 9298 C 872.874 -2.84133 -3.4027 0
M  V30 9299 H 870.094 -0.536574 -0.402901 0
M  V30 9300 H 872.638 -1.93725 -0.655045 0
M  V30 9301 H 870.793 -2.3096 -3.11025 0
M  V30 9302 H 871.207 -4.48769 -2.7149 0
M  V30 9303 H 872.681 -3.60538 -4.17991 0
M  V30 9304 H 873.158 -1.92512 -3.9476 0
M  V30 9305 H 873.764 -3.17188 -2.83322 0
M  V30 9306 N 872.079 0.78992 -1.36375 0
M  V30 9307 C 873.029 1.89227 -1.27189 0
M  V30 9308 C 874.013 1.60067 -0.163498 0
M  V30 9309 O 875.205 1.72507 -0.396262 0
M  V30 9310 C 872.334 3.26431 -1.06292 0
M  V30 9311 C 871.42 3.61602 -2.21596 0
M  V30 9312 N 871.811 3.68086 -3.4691 0
M  V30 9313 C 870.109 3.9166 -2.1335 0
M  V30 9314 C 870.81 3.99481 -4.22835 0
M  V30 9315 N 869.786 4.14438 -3.5177 0
M  V30 9316 H 873.588 1.92465 -2.22113 0
M  V30 9317 H 871.102 0.985414 -1.29087 0
M  V30 9318 H 873.099 4.05267 -0.97798 0
M  V30 9319 H 871.759 3.24468 -0.122676 0
M  V30 9320 H 872.77 3.50743 -3.81051 0
M  V30 9321 H 869.447 3.97626 -1.27279 0
M  V30 9322 H 870.837 4.11425 -5.31205 0
M  V30 9323 N 873.557 1.20646 1.01402 0
M  V30 9324 C 874.489 0.915392 2.10127 0
M  V30 9325 C 875.502 -0.0978705 1.62506 0
M  V30 9326 O 876.691 0.133477 1.78 0
M  V30 9327 C 873.791 0.351304 3.37074 0
M  V30 9328 C 872.964 1.41673 4.13821 0
M  V30 9329 C 872.023 0.8635 5.19067 0
M  V30 9330 O 871.049 1.54481 5.47836 0
M  V30 9331 N 872.251 -0.325799 5.79585 0
M  V30 9332 H 875.016 1.85132 2.35682 0
M  V30 9333 H 872.577 1.11048 1.17813 0
M  V30 9334 H 874.569 -0.032996 4.04687 0
M  V30 9335 H 873.139 -0.489242 3.08748 0
M  V30 9336 H 872.359 1.97526 3.41141 0
M  V30 9337 H 873.647 2.1342 4.61876 0
M  V30 9338 H 873.045 -0.896534 5.58551 0
M  V30 9339 H 871.602 -0.651708 6.48534 0
M  V30 9340 N 875.035 -1.20752 1.01276 0
M  V30 9341 C 876.283 -1.89645 0.698505 0
M  V30 9342 C 876.604 -1.78986 -0.773883 0
M  V30 9343 O 875.874 -1.18977 -1.55632 0
M  V30 9344 H 874.454 -0.701992 0.255375 0
M  V30 9345 H 877.116 -1.46668 1.28353 0
M  V30 9346 H 876.212 -2.96364 0.978512 0
M  V30 9347 N 876.513 -0.788492 -1.36457 0
M  V30 9348 C 877.759 -0.370067 -2.00005 0
M  V30 9349 C 878.114 1.0464 -1.61456 0
M  V30 9350 O 877.407 1.71277 -0.85876 0
M  V30 9351 C 877.601 -0.470255 -3.54293 0
M  V30 9352 C 877.43 -1.89492 -4.07827 0
M  V30 9353 C 876.2 -2.51932 -4.38016 0
M  V30 9354 C 878.398 -2.85692 -4.2765 0
M  V30 9355 N 876.38 -3.85997 -4.77368 0
M  V30 9356 C 877.751 -4.04588 -4.69796 0
M  V30 9357 C 879.806 -2.8276 -4.09818 0
M  V30 9358 C 878.509 -5.2096 -4.95977 0
M  V30 9359 C 880.535 -3.98319 -4.37145 0
M  V30 9360 C 879.897 -5.1596 -4.79547 0
M  V30 9361 H 875.996 -0.182813 -0.760331 0
M  V30 9362 H 878.58 -1.02589 -1.6548 0
M  V30 9363 H 876.751 0.155476 -3.88089 0
M  V30 9364 H 878.483 -0.0281643 -4.0469 0
M  V30 9365 H 875.238 -2.0342 -4.27688 0
M  V30 9366 H 875.662 -4.54971 -5.01329 0
M  V30 9367 H 880.304 -1.92971 -3.76194 0
M  V30 9368 H 878.022 -6.11335 -5.28483 0
M  V30 9369 H 881.608 -3.97411 -4.24919 0
M  V30 9370 H 880.488 -6.03893 -5.00283 0
M  V30 9371 N 877.991 1.48044 -0.54043 0
M  V30 9372 C 879.219 2.06895 -0.0145153 0
M  V30 9373 C 879.634 1.39552 1.27164 0
M  V30 9374 O 878.991 0.486454 1.75897 0
M  V30 9375 C 879.042 3.60934 0.202278 0
M  V30 9376 O 878.763 4.25749 -1.03293 0
M  V30 9377 C 880.264 4.36607 0.767387 0
M  V30 9378 H 877.484 0.66991 -0.0382368 0
M  V30 9379 H 880.028 1.90288 -0.749057 0
M  V30 9380 H 878.183 3.77111 0.886897 0
M  V30 9381 H 878.597 5.18048 -0.820167 0
M  V30 9382 H 880.071 5.45126 0.86845 0
M  V30 9383 H 880.548 4.01745 1.77477 0
M  V30 9384 H 881.154 4.25133 0.119002 0
M  V30 9385 N 879.47 0.276058 1.55163 0
M  V30 9386 C 880.881 -0.221516 1.85381 0
M  V30 9387 C 881.232 -1.55372 1.19808 0
M  V30 9388 O 880.357 -2.10855 0.486742 0
M  V30 9389 C 880.952 -0.408706 3.36326 0
M  V30 9390 C 879.511 -0.850512 3.66665 0
M  V30 9391 C 878.658 0.055656 2.77244 0
M  V30 9392 H 881.609 0.497819 1.5069 0
M  V30 9393 H 881.63 -1.24711 3.59482 0
M  V30 9394 H 881.142 0.561052 3.84023 0
M  V30 9395 H 879.243 -1.83171 3.24468 0
M  V30 9396 H 879.356 -0.687181 4.74146 0
M  V30 9397 H 877.72 -0.460819 2.50497 0
M  V30 9398 H 878.503 1.02131 3.27756 0
M  V30 9399 N 880.948 -1.576 0.00335426 0
M  V30 9400 C 881.878 -2.11668 -0.985839 0
M  V30 9401 C 882.859 -1.02661 -1.35627 0
M  V30 9402 O 884.044 -1.30361 -1.43943 0
M  V30 9403 C 881.174 -2.62273 -2.27662 0
M  V30 9404 C 880.128 -3.75837 -2.0477 0
M  V30 9405 C 879.454 -4.12769 -3.39891 0
M  V30 9406 C 880.754 -5.02975 -1.40759 0
M  V30 9407 H 882.448 -2.9457 -0.535637 0
M  V30 9408 H 879.994 -1.41702 -0.256204 0
M  V30 9409 H 881.947 -2.98727 -2.97221 0
M  V30 9410 H 880.671 -1.76498 -2.74802 0
M  V30 9411 H 879.33 -3.39782 -1.37636 0
M  V30 9412 H 878.978 -3.24013 -3.8474 0
M  V30 9413 H 878.678 -4.89281 -3.25389 0
M  V30 9414 H 880.202 -4.51784 -4.1076 0
M  V30 9415 H 881.616 -5.37179 -2.00279 0
M  V30 9416 H 880.013 -5.84315 -1.36734 0
M  V30 9417 H 881.083 -4.83431 -0.377218 0
M  V30 9418 N 882.426 0.269451 -1.5528 0
M  V30 9419 C 883.376 1.33553 -1.84791 0
M  V30 9420 C 884.36 1.44532 -0.707067 0
M  V30 9421 O 885.552 1.48153 -0.968493 0
M  V30 9422 C 882.681 2.69516 -2.12641 0
M  V30 9423 C 881.767 2.62633 -3.32993 0
M  V30 9424 N 882.158 2.25371 -4.52815 0
M  V30 9425 C 880.456 2.93688 -3.35654 0
M  V30 9426 C 881.157 2.28567 -5.34913 0
M  V30 9427 N 880.133 2.67181 -4.73408 0
M  V30 9428 H 883.935 1.03758 -2.74976 0
M  V30 9429 H 881.449 0.478087 -1.55203 0
M  V30 9430 H 883.446 3.46424 -2.3194 0
M  V30 9431 H 882.106 3.00197 -1.23742 0
M  V30 9432 H 883.117 1.9729 -4.7885 0
M  V30 9433 H 879.794 3.29057 -2.56958 0
M  V30 9434 H 881.184 2.02289 -6.40725 0
M  V30 9435 N 883.904 1.48273 0.534124 0
M  V30 9436 C 884.834 1.6538 1.64839 0
M  V30 9437 C 885.815 0.502741 1.62501 0
M  V30 9438 O 887 0.734799 1.79762 0
M  V30 9439 C 884.13 1.68949 3.03436 0
M  V30 9440 C 883.084 2.83513 3.20631 0
M  V30 9441 C 882.41 2.72169 4.60248 0
M  V30 9442 C 883.71 4.24858 3.03797 0
M  V30 9443 H 885.404 2.58663 1.50777 0
M  V30 9444 H 882.95 1.24479 0.723937 0
M  V30 9445 H 884.903 1.79505 3.81256 0
M  V30 9446 H 883.627 0.722415 3.1851 0
M  V30 9447 H 882.286 2.72505 2.45227 0
M  V30 9448 H 881.934 1.7344 4.72152 0
M  V30 9449 H 881.634 3.49042 4.72698 0
M  V30 9450 H 883.158 2.84687 5.40172 0
M  V30 9451 H 884.572 4.36721 3.71413 0
M  V30 9452 H 882.969 5.02697 3.27743 0
M  V30 9453 H 884.039 4.41611 2.0027 0
M  V30 9454 N 885.382 -0.782676 1.36792 0
M  V30 9455 C 886.345 -1.8772 1.31507 0
M  V30 9456 C 887.345 -1.59269 0.221349 0
M  V30 9457 O 888.535 -1.67555 0.476544 0
M  V30 9458 C 885.667 -3.24641 1.04025 0
M  V30 9459 H 886.86 -1.9382 2.28853 0
M  V30 9460 H 884.413 -0.981226 1.21662 0
M  V30 9461 H 885.148 -3.24221 0.0716439 0
M  V30 9462 H 884.933 -3.46681 1.8318 0
M  V30 9463 H 886.423 -4.04711 1.02949 0
M  V30 9464 N 886.86 -1.21182 -1.00761 0
M  V30 9465 C 887.823 -0.970339 -2.07646 0
M  V30 9466 C 888.823 0.0576345 -1.60697 0
M  V30 9467 O 890.013 -0.179369 -1.73274 0
M  V30 9468 C 887.145 -0.462703 -3.37745 0
M  V30 9469 H 888.338 -1.91856 -2.30502 0
M  V30 9470 H 885.891 -1.02844 -1.17698 0
M  V30 9471 H 886.626 0.490559 -3.20568 0
M  V30 9472 H 886.411 -1.20416 -3.73152 0
M  V30 9473 H 887.901 -0.313531 -4.16421 0
M  V30 9474 N 888.338 1.20213 -1.01915 0
M  V30 9475 C 889.568 1.93341 -0.728197 0
M  V30 9476 C 889.976 1.75151 0.715454 0
M  V30 9477 O 889.319 1.06437 1.49722 0
M  V30 9478 C 889.381 3.45677 -0.9873 0
M  V30 9479 C 889.045 3.8763 -2.42057 0
M  V30 9480 C 890.042 3.93184 -3.40151 0
M  V30 9481 C 887.727 4.19547 -2.76199 0
M  V30 9482 C 889.721 4.30069 -4.70446 0
M  V30 9483 C 887.408 4.56106 -4.06707 0
M  V30 9484 C 888.406 4.6134 -5.03641 0
M  V30 9485 O 888.094 4.97059 -6.31813 0
M  V30 9486 H 887.826 0.621258 -0.266485 0
M  V30 9487 H 890.38 1.53577 -1.36393 0
M  V30 9488 H 888.61 3.85578 -0.294405 0
M  V30 9489 H 890.299 4.00035 -0.687536 0
M  V30 9490 H 891.065 3.68687 -3.15111 0
M  V30 9491 H 886.944 4.14663 -2.01434 0
M  V30 9492 H 890.488 4.34069 -5.46105 0
M  V30 9493 H 886.385 4.80059 -4.31525 0
M  V30 9494 H 887.153 5.15043 -6.36139 0
M  V30 9495 N 889.816 0.795718 1.36037 0
M  V30 9496 C 890.763 0.196548 2.29962 0
M  V30 9497 C 891.733 -0.663213 1.52285 0
M  V30 9498 O 892.918 -0.610574 1.80767 0
M  V30 9499 C 890.058 -0.657639 3.38776 0
M  V30 9500 C 889.171 0.221358 4.31433 0
M  V30 9501 C 888.306 -0.6398 5.27333 0
M  V30 9502 C 887.345 0.240265 6.11628 0
M  V30 9503 N 886.482 -0.580237 6.99698 0
M  V30 9504 H 891.322 1.00295 2.80615 0
M  V30 9505 H 888.859 0.506147 1.38118 0
M  V30 9506 H 890.817 -1.16793 4.00519 0
M  V30 9507 H 889.447 -1.42941 2.89426 0
M  V30 9508 H 888.499 0.84967 3.70789 0
M  V30 9509 H 889.811 0.899195 4.90628 0
M  V30 9510 H 888.965 -1.21566 5.94396 0
M  V30 9511 H 887.704 -1.35124 4.68607 0
M  V30 9512 H 886.709 0.828474 5.43522 0
M  V30 9513 H 887.934 0.949403 6.72431 0
M  V30 9514 H 885.88 -1.27585 6.43473 0
M  V30 9515 H 885.797 0.0397853 7.5599 0
M  V30 9516 H 887.065 -1.13972 7.71123 0
M  V30 9517 N 891.294 -1.47756 0.548274 0
M  V30 9518 C 892.542 -2.02089 0.0208542 0
M  V30 9519 C 892.863 -1.42589 -1.33017 0
M  V30 9520 O 892.133 -0.597825 -1.86555 0
M  V30 9521 H 890.713 -0.746985 0.00472023 0
M  V30 9522 H 893.375 -1.81262 0.716257 0
M  V30 9523 H 892.471 -3.12012 -0.0739016 0
M  V30 9524 N 892.772 -0.284283 -1.55015 0
M  V30 9525 C 893.722 0.613913 -2.19579 0
M  V30 9526 C 894.706 1.11153 -1.16335 0
M  V30 9527 O 895.898 1.05508 -1.42116 0
M  V30 9528 C 893.027 1.79329 -2.92739 0
M  V30 9529 C 892.113 1.31242 -4.03282 0
M  V30 9530 N 892.504 0.548344 -5.02819 0
M  V30 9531 C 890.802 1.5946 -4.1652 0
M  V30 9532 C 891.503 0.294358 -5.80955 0
M  V30 9533 N 890.479 0.869406 -5.36603 0
M  V30 9534 H 894.281 0.0224088 -2.93891 0
M  V30 9535 H 891.795 -0.0882619 -1.6216 0
M  V30 9536 H 893.792 2.44814 -3.37449 0
M  V30 9537 H 892.452 2.38865 -2.1994 0
M  V30 9538 H 893.463 0.194812 -5.17533 0
M  V30 9539 H 890.14 2.19866 -3.54916 0
M  V30 9540 H 891.53 -0.318195 -6.71146 0
M  V30 9541 N 894.251 1.57596 -0.0117121 0
M  V30 9542 C 895.181 2.12188 0.9746 0
M  V30 9543 C 896.162 1.03379 1.35081 0
M  V30 9544 O 897.347 1.31123 1.4325 0
M  V30 9545 C 894.477 2.63477 2.26268 0
M  V30 9546 C 893.431 3.76917 2.02774 0
M  V30 9547 C 892.757 4.14566 3.37697 0
M  V30 9548 C 894.057 5.03715 1.38089 0
M  V30 9549 H 895.751 2.9485 0.520007 0
M  V30 9550 H 893.297 1.41836 0.248685 0
M  V30 9551 H 895.25 3.00299 2.95633 0
M  V30 9552 H 893.974 1.77953 2.73862 0
M  V30 9553 H 892.633 3.40507 1.35832 0
M  V30 9554 H 892.281 3.26048 3.83016 0
M  V30 9555 H 891.981 4.91 3.22789 0
M  V30 9556 H 893.505 4.53956 4.08358 0
M  V30 9557 H 894.919 5.38233 1.97428 0
M  V30 9558 H 893.316 5.85032 1.33634 0
M  V30 9559 H 894.386 4.83624 0.351575 0
M  V30 9560 N 895.729 -0.261212 1.5542 0
M  V30 9561 C 896.639 -1.34493 1.92221 0
M  V30 9562 C 897.655 -1.53421 0.82086 0
M  V30 9563 O 898.831 -1.6732 1.12099 0
M  V30 9564 C 895.896 -2.68209 2.19692 0
M  V30 9565 C 894.957 -2.57927 3.43179 0
M  V30 9566 C 894.19 -3.85266 3.69331 0
M  V30 9567 O 894.413 -4.86493 2.97793 0
M  V30 9568 O 893.347 -3.8476 4.62865 0
M  V30 9569 H 897.173 -1.06278 2.84497 0
M  V30 9570 H 894.758 -0.460752 1.42118 0
M  V30 9571 H 896.64 -3.47252 2.38734 0
M  V30 9572 H 895.315 -2.96186 1.30597 0
M  V30 9573 H 894.222 -1.77219 3.2946 0
M  V30 9574 H 895.555 -2.34898 4.32532 0
M  V30 9575 N 897.207 -1.48554 -0.526253 0
M  V30 9576 C 898.456 -1.56014 -1.27837 0
M  V30 9577 C 898.769 -0.240643 -1.94114 0
M  V30 9578 O 899.975 -0.193525 -2.70809 0
M  V30 9579 C 898.431 -2.75161 -2.31979 0
M  V30 9580 C 898.039 -4.13768 -1.71755 0
M  V30 9581 C 899.783 -2.91936 -3.08178 0
M  V30 9582 C 897.69 -5.24171 -2.7386 0
M  V30 9583 H 896.62 -0.58082 -0.480795 0
M  V30 9584 H 899.271 -1.74895 -0.555335 0
M  V30 9585 H 897.653 -2.49722 -3.07335 0
M  V30 9586 H 898.827 -4.49241 -1.02563 0
M  V30 9587 H 897.142 -4.02141 -1.08036 0
M  V30 9588 H 899.739 -3.71586 -3.84484 0
M  V30 9589 H 900.082 -2.01533 -3.64267 0
M  V30 9590 H 900.615 -3.17294 -2.39937 0
M  V30 9591 H 897.354 -6.16552 -2.22586 0
M  V30 9592 H 896.874 -4.93181 -3.41368 0
M  V30 9593 H 898.553 -5.52442 -3.36774 0
M  V30 9594 N 898.685 0.775411 -1.37205 0
M  V30 9595 C 899.934 1.52909 -1.31536 0
M  V30 9596 C 900.247 1.9535 0.0989374 0
M  V30 9597 O 901.453 2.70072 0.278079 0
M  V30 9598 C 899.909 2.761 -2.30861 0
M  V30 9599 C 899.517 2.40773 -3.77799 0
M  V30 9600 C 901.261 3.54052 -2.34195 0
M  V30 9601 C 899.168 3.60444 -4.68865 0
M  V30 9602 H 898.098 0.574061 -0.488845 0
M  V30 9603 H 900.749 0.849642 -1.62645 0
M  V30 9604 H 899.131 3.45916 -1.92764 0
M  V30 9605 H 900.305 1.78764 -4.24712 0
M  V30 9606 H 898.62 1.76004 -3.77375 0
M  V30 9607 H 901.217 4.42992 -2.99437 0
M  V30 9608 H 901.56 3.93649 -1.35449 0
M  V30 9609 H 902.093 2.91229 -2.7098 0
M  V30 9610 H 898.832 3.25932 -5.68725 0
M  V30 9611 H 898.352 4.21571 -4.26659 0
M  V30 9612 H 900.031 4.27302 -4.85821 0
M  V30 9613 N 900.163 1.21714 1.00117 0
M  V30 9614 C 901.113 0.947259 2.07391 0
M  V30 9615 C 902.097 -0.0989662 1.60595 0
M  V30 9616 O 903.289 0.11047 1.76655 0
M  V30 9617 C 900.418 0.517954 3.3937 0
M  V30 9618 C 899.504 1.59846 3.92823 0
M  V30 9619 N 899.895 2.82438 4.19598 0
M  V30 9620 C 898.193 1.46822 4.2114 0
M  V30 9621 C 898.894 3.52247 4.62922 0
M  V30 9622 N 897.87 2.79696 4.66124 0
M  V30 9623 H 901.672 1.8786 2.26022 0
M  V30 9624 H 899.186 1.11344 1.18221 0
M  V30 9625 H 901.183 0.305951 4.15776 0
M  V30 9626 H 899.843 -0.40658 3.22144 0
M  V30 9627 H 900.854 3.18944 4.08038 0
M  V30 9628 H 897.531 0.609259 4.13031 0
M  V30 9629 H 898.921 4.57232 4.9233 0
M  V30 9630 N 901.641 -1.19671 1.02551 0
M  V30 9631 C 902.571 -2.25009 0.623965 0
M  V30 9632 C 903.552 -1.66129 -0.36538 0
M  V30 9633 O 904.737 -1.92599 -0.248842 0
M  V30 9634 C 901.867 -3.47287 -0.0294869 0
M  V30 9635 C 900.821 -4.18818 0.881781 0
M  V30 9636 C 900.147 -5.34618 0.0936189 0
M  V30 9637 C 901.447 -4.73986 2.19396 0
M  V30 9638 H 903.141 -2.58851 1.50454 0
M  V30 9639 H 900.687 -1.24425 0.724872 0
M  V30 9640 H 902.64 -4.20168 -0.322016 0
M  V30 9641 H 901.364 -3.12635 -0.944838 0
M  V30 9642 H 900.023 -3.47815 1.15845 0
M  V30 9643 H 899.671 -4.9621 -0.823661 0
M  V30 9644 H 899.371 -5.83409 0.700568 0
M  V30 9645 H 900.895 -6.10297 -0.192249 0
M  V30 9646 H 902.309 -5.38639 1.96319 0
M  V30 9647 H 900.706 -5.3325 2.75254 0
M  V30 9648 H 901.776 -3.92238 2.85092 0
M  V30 9649 N 903.119 -0.802921 -1.35613 0
M  V30 9650 C 904.049 -0.225131 -2.32412 0
M  V30 9651 C 905.03 0.647383 -1.57299 0
M  V30 9652 O 906.215 0.578414 -1.85386 0
M  V30 9653 C 903.345 0.630085 -3.41537 0
M  V30 9654 C 902.299 -0.143635 -4.27759 0
M  V30 9655 C 901.625 0.833046 -5.28171 0
M  V30 9656 C 902.925 -1.34054 -5.04804 0
M  V30 9657 H 904.619 -1.03385 -2.80984 0
M  V30 9658 H 902.165 -0.498593 -1.35093 0
M  V30 9659 H 904.118 1.04433 -4.08254 0
M  V30 9660 H 902.842 1.47165 -2.91565 0
M  V30 9661 H 901.501 -0.539015 -3.62616 0
M  V30 9662 H 901.149 1.67001 -4.74468 0
M  V30 9663 H 900.849 0.319697 -5.8673 0
M  V30 9664 H 902.373 1.24558 -5.97761 0
M  V30 9665 H 903.787 -1.00136 -5.64487 0
M  V30 9666 H 902.184 -1.78812 -5.72841 0
M  V30 9667 H 903.254 -2.12906 -4.35659 0
M  V30 9668 N 904.597 1.47463 -0.556102 0
M  V30 9669 C 905.56 2.28478 0.181743 0
M  V30 9670 C 906.56 1.36886 0.843738 0
M  V30 9671 O 907.75 1.59527 0.69977 0
M  V30 9672 C 904.882 3.16534 1.26566 0
M  V30 9673 H 906.075 2.95182 -0.529892 0
M  V30 9674 H 903.628 1.53134 -0.313005 0
M  V30 9675 H 904.363 2.5452 2.00973 0
M  V30 9676 H 904.148 3.83939 0.795798 0
M  V30 9677 H 905.638 3.77579 1.78393 0
M  V30 9678 N 906.075 0.2925 1.54862 0
M  V30 9679 C 906.985 -0.597036 2.26876 0
M  V30 9680 C 908.001 -1.15558 1.30086 0
M  V30 9681 O 909.177 -1.18217 1.63054 0
M  V30 9682 C 906.242 -1.75664 2.98903 0
M  V30 9683 C 905.303 -1.23303 4.11212 0
M  V30 9684 C 904.536 -2.33736 4.79795 0
M  V30 9685 O 904.759 -3.53459 4.47686 0
M  V30 9686 O 903.693 -2.00908 5.67379 0
M  V30 9687 H 907.519 -0.0131242 3.03697 0
M  V30 9688 H 905.104 0.0592642 1.49282 0
M  V30 9689 H 906.986 -2.43241 3.4411 0
M  V30 9690 H 905.661 -2.32731 2.24984 0
M  V30 9691 H 904.568 -0.523222 3.70423 0
M  V30 9692 H 905.901 -0.707887 4.87083 0
M  V30 9693 N 907.553 -1.57587 0.0200696 0
M  V30 9694 C 908.778 -1.96124 -0.674547 0
M  V30 9695 C 909.203 -0.896068 -1.65385 0
M  V30 9696 O 908.561 0.143925 -1.80728 0
M  V30 9697 C 908.609 -3.3376 -1.36517 0
M  V30 9698 O 907.713 -3.29483 -2.48022 0
M  V30 9699 H 907.054 -0.639719 -0.177919 0
M  V30 9700 H 909.584 -2.04447 0.0792317 0
M  V30 9701 H 909.594 -3.69785 -1.72403 0
M  V30 9702 H 908.269 -4.10832 -0.647265 0
M  V30 9703 H 906.846 -3.05162 -2.14314 0
M  V30 9704 N 909.032 0.252966 -1.55557 0
M  V30 9705 C 909.982 1.31585 -1.86197 0
M  V30 9706 C 910.966 1.43773 -0.722357 0
M  V30 9707 O 912.158 1.47117 -0.984152 0
M  V30 9708 C 909.287 2.67245 -2.15487 0
M  V30 9709 C 908.373 2.59087 -3.3576 0
M  V30 9710 N 908.764 2.20556 -4.5518 0
M  V30 9711 C 907.062 2.90112 -3.3875 0
M  V30 9712 C 907.763 2.22881 -5.37307 0
M  V30 9713 N 906.739 2.62145 -4.76215 0
M  V30 9714 H 910.541 1.00835 -2.76061 0
M  V30 9715 H 908.055 0.461598 -1.55702 0
M  V30 9716 H 910.052 3.43944 -2.35602 0
M  V30 9717 H 908.712 2.98867 -1.26919 0
M  V30 9718 H 909.723 1.922 -4.80915 0
M  V30 9719 H 906.4 3.26313 -2.60434 0
M  V30 9720 H 907.79 1.95482 -6.42835 0
M  V30 9721 N 910.51 1.48831 0.518367 0
M  V30 9722 C 911.473 1.63721 1.604 0
M  V30 9723 C 912.473 0.509857 1.52503 0
M  V30 9724 O 913.663 0.775922 1.55965 0
M  V30 9725 C 910.795 1.61831 3.00039 0
M  V30 9726 H 911.988 2.60534 1.48533 0
M  V30 9727 H 909.541 1.37602 0.741309 0
M  V30 9728 H 910.276 0.665387 3.17401 0
M  V30 9729 H 910.061 2.43686 3.0718 0
M  V30 9730 H 911.551 1.75467 3.78947 0
M  V30 9731 N 911.988 -0.768124 1.37614 0
M  V30 9732 C 912.936 -1.9029 1.33763 0
M  V30 9733 C 913.93 -1.67888 0.225814 0
M  V30 9734 O 915.136 -1.75634 0.394043 0
M  V30 9735 H 911.511 -0.625828 0.416945 0
M  V30 9736 H 913.482 -1.90654 2.29551 0
M  V30 9737 C 912.231 -3.27598 1.16511 0
M  V30 9738 H 911.554 -3.45414 2.01318 0
M  V30 9739 H 912.994 -4.07288 1.17867 0
M  V30 9740 C 911.453 -3.36653 -0.129001 0
M  V30 9741 O 911.983 -3.86023 -1.11128 0
M  V30 9742 N 910.189 -2.90036 -0.180926 0
M  V30 9743 H 909.736 -2.5005 0.619076 0
M  V30 9744 H 909.694 -2.96475 -1.04641 0
M  V30 9745 N 913.466 -1.22244 -0.994698 0
M  V30 9746 C 914.399 -0.934168 -2.08203 0
M  V30 9747 C 915.377 0.122231 -1.6214 0
M  V30 9748 O 916.561 -0.00896598 -1.88498 0
M  V30 9749 C 913.688 -0.404646 -3.36274 0
M  V30 9750 C 912.734 -1.44544 -4.01259 0
M  V30 9751 S 913.567 -3.01816 -4.42343 0
M  V30 9752 C 914.723 -2.50497 -5.73587 0
M  V30 9753 H 914.956 -1.85493 -2.32335 0
M  V30 9754 H 912.489 -1.0533 -1.12893 0
M  V30 9755 H 914.447 -0.105719 -4.10364 0
M  V30 9756 H 913.108 0.494971 -3.10176 0
M  V30 9757 H 912.301 -1.02478 -4.93472 0
M  V30 9758 H 911.903 -1.69298 -3.33488 0
M  V30 9759 H 914.195 -1.91626 -6.49835 0
M  V30 9760 H 915.138 -3.41193 -6.20478 0
M  V30 9761 H 915.546 -1.91845 -5.30901 0
M  V30 9762 N 914.944 1.19125 -1.03184 0
M  V30 9763 C 916.192 1.8851 -0.728587 0
M  V30 9764 C 916.513 1.80195 0.74531 0
M  V30 9765 O 915.783 1.21437 1.5372 0
M  V30 9766 H 914.363 0.69784 -0.266511 0
M  V30 9767 H 917.025 1.44607 -1.3067 0
M  V30 9768 H 916.121 2.9477 -1.02554 0
M  V30 9769 N 916.422 0.810101 1.35185 0
M  V30 9770 C 917.385 0.22852 2.28058 0
M  V30 9771 C 918.385 -0.586168 1.49735 0
M  V30 9772 O 919.575 -0.40414 1.69447 0
M  V30 9773 C 916.707 -0.681041 3.34028 0
M  V30 9774 H 917.9 1.04768 2.81005 0
M  V30 9775 H 915.453 0.58101 1.451 0
M  V30 9776 H 916.188 -1.52375 2.86273 0
M  V30 9777 H 915.973 -0.0985276 3.91976 0
M  V30 9778 H 917.463 -1.08217 4.03335 0
M  V30 9779 N 917.9 -1.47166 0.563914 0
M  V30 9780 C 918.83 -2.32894 -0.168148 0
M  V30 9781 C 919.811 -1.44202 -0.902214 0
M  V30 9782 O 920.996 -1.73048 -0.881365 0
M  V30 9783 C 918.126 -3.26116 -1.19439 0
M  V30 9784 C 917.08 -4.24101 -0.576363 0
M  V30 9785 C 916.406 -5.06696 -1.70772 0
M  V30 9786 C 917.706 -5.20142 0.47425 0
M  V30 9787 H 919.4 -2.9435 0.547573 0
M  V30 9788 H 916.946 -1.41545 0.264778 0
M  V30 9789 H 918.899 -3.84935 -1.71474 0
M  V30 9790 H 917.623 -2.62728 -1.94014 0
M  V30 9791 H 916.282 -3.66519 -0.0772534 0
M  V30 9792 H 915.93 -4.39707 -2.44268 0
M  V30 9793 H 915.63 -5.7304 -1.29994 0
M  V30 9794 H 917.154 -5.68375 -2.2312 0
M  V30 9795 H 918.568 -5.73286 0.0397035 0
M  V30 9796 H 916.965 -5.94726 0.801287 0
M  V30 9797 H 918.035 -4.65214 1.36764 0
M  V30 9798 N 919.378 -0.300708 -1.54705 0
M  V30 9799 C 920.626 0.308044 -1.99739 0
M  V30 9800 C 920.947 1.54433 -1.19061 0
M  V30 9801 O 920.217 1.93794 -0.286507 0
M  V30 9802 H 918.797 0.116811 -0.73781 0
M  V30 9803 H 921.459 -0.41197 -1.90496 0
M  V30 9804 H 920.555 0.580287 -3.06658 0
M  V30 9805 N 920.856 1.57574 -0.0284266 0
M  V30 9806 C 921.819 2.09096 0.938691 0
M  V30 9807 C 922.819 1.00588 1.25454 0
M  V30 9808 O 924.009 1.2675 1.19499 0
M  V30 9809 C 921.141 2.55624 2.25542 0
M  V30 9810 H 922.334 2.95829 0.49248 0
M  V30 9811 H 919.887 1.5475 0.219594 0
M  V30 9812 H 920.622 1.72218 2.74793 0
M  V30 9813 H 920.407 3.34896 2.03929 0
M  V30 9814 H 921.897 2.95712 2.94863 0
M  V30 9815 N 922.334 -0.244713 1.55689 0
M  V30 9816 C 923.58 -0.973886 1.77886 0
M  V30 9817 C 923.913 -1.8489 0.594071 0
M  V30 9818 O 923.188 -1.90182 -0.407564 0
M  V30 9819 C 923.471 -1.83255 3.09983 0
M  V30 9820 C 923.324 -0.985571 4.3887 0
M  V30 9821 C 924.643 -2.81464 3.38329 0
M  V30 9822 H 921.762 -0.352629 0.647165 0
M  V30 9823 H 924.404 -0.244243 1.88424 0
M  V30 9824 H 922.554 -2.45464 3.01131 0
M  V30 9825 H 924.226 -0.382005 4.59716 0
M  V30 9826 H 922.469 -0.29002 4.32829 0
M  V30 9827 H 923.14 -1.62022 5.27686 0
M  V30 9828 H 925.616 -2.2939 3.47159 0
M  V30 9829 H 924.492 -3.38663 4.31971 0
M  V30 9830 H 924.753 -3.58037 2.59349 0
M  V30 9831 N 923.813 -1.49104 -0.510467 0
M  V30 9832 C 924.761 -1.65547 -1.63392 0
M  V30 9833 C 925.755 -0.521522 -1.61172 0
M  V30 9834 O 926.961 -0.700865 -1.65795 0
M  V30 9835 H 923.336 -0.521843 -0.541464 0
M  V30 9836 H 925.307 -2.59864 -1.46673 0
M  V30 9837 C 924.056 -1.73051 -3.01577 0
M  V30 9838 H 923.379 -2.59676 -3.03987 0
M  V30 9839 H 924.819 -1.88594 -3.79748 0
M  V30 9840 C 923.278 -0.47328 -3.33559 0
M  V30 9841 O 923.808 0.405239 -3.99651 0
M  V30 9842 N 922.014 -0.339074 -2.88615 0
M  V30 9843 H 921.561 -1.05497 -2.35007 0
M  V30 9844 H 921.519 0.501061 -3.10382 0
M  V30 9845 N 925.291 0.760815 -1.38019 0
M  V30 9846 C 926.537 1.52109 -1.35034 0
M  V30 9847 C 926.892 1.92302 0.0615509 0
M  V30 9848 O 926.185 1.62028 1.02261 0
M  V30 9849 C 926.379 2.79024 -2.23339 0
M  V30 9850 C 926.208 2.51238 -3.72974 0
M  V30 9851 C 924.978 2.44818 -4.42032 0
M  V30 9852 C 927.176 2.18499 -4.65578 0
M  V30 9853 N 925.158 2.09232 -5.77144 0
M  V30 9854 C 926.529 1.93143 -5.89148 0
M  V30 9855 C 928.584 2.04747 -4.53854 0
M  V30 9856 C 927.287 1.55423 -7.02308 0
M  V30 9857 C 929.313 1.68428 -5.66909 0
M  V30 9858 C 928.675 1.43939 -6.89537 0
M  V30 9859 H 924.774 0.556482 -0.54941 0
M  V30 9860 H 927.358 0.886614 -1.73341 0
M  V30 9861 H 925.529 3.40292 -1.87232 0
M  V30 9862 H 927.261 3.45016 -2.11533 0
M  V30 9863 H 924.016 2.61045 -3.95161 0
M  V30 9864 H 924.44 1.94104 -6.48577 0
M  V30 9865 H 929.082 2.22358 -3.59607 0
M  V30 9866 H 926.8 1.36551 -7.96479 0
M  V30 9867 H 930.386 1.5843 -5.59814 0
M  V30 9868 H 929.266 1.16253 -7.75535 0
M  V30 9869 N 926.769 1.22769 0.988202 0
M  V30 9870 C 927.997 1.08155 1.76381 0
M  V30 9871 C 928.412 -0.367573 1.85187 0
M  V30 9872 O 927.769 -1.25455 1.32541 0
M  V30 9873 C 927.82 1.69193 3.19462 0
M  V30 9874 O 927.541 3.08437 3.11125 0
M  V30 9875 C 929.042 1.59915 4.13451 0
M  V30 9876 H 926.262 0.378908 0.553778 0
M  V30 9877 H 928.806 1.6246 1.24206 0
M  V30 9878 H 926.961 1.18939 3.6869 0
M  V30 9879 H 927.375 3.37916 4.0114 0
M  V30 9880 H 928.849 2.07339 5.1158 0
M  V30 9881 H 929.326 0.556546 4.3566 0
M  V30 9882 H 929.932 2.09497 3.70123 0
M  V30 9883 N 928.247 -1.18576 1.03814 0
M  V30 9884 C 929.658 -1.70159 0.768299 0
M  V30 9885 C 930.009 -1.8286 -0.711106 0
M  V30 9886 O 929.134 -1.5063 -1.55369 0
M  V30 9887 C 929.729 -3.09062 1.38804 0
M  V30 9888 C 928.288 -3.57866 1.16656 0
M  V30 9889 C 927.435 -2.34484 1.48029 0
M  V30 9890 H 930.386 -1.03287 1.20488 0
M  V30 9891 H 930.407 -3.72211 0.7899 0
M  V30 9892 H 929.919 -2.99785 2.46476 0
M  V30 9893 H 928.02 -3.72442 0.108471 0
M  V30 9894 H 928.133 -4.41445 1.8618 0
M  V30 9895 H 926.497 -2.38273 0.899902 0
M  V30 9896 H 927.28 -2.27829 2.56805 0
M  V30 9897 N 929.725 -0.817259 -1.34754 0
M  V30 9898 C 930.655 -0.249769 -2.3216 0
M  V30 9899 C 931.636 0.630663 -1.57977 0
M  V30 9900 O 932.821 0.558719 -1.85989 0
M  V30 9901 C 929.951 0.593825 -3.42186 0
M  V30 9902 C 928.905 -0.188997 -4.27583 0
M  V30 9903 C 928.231 0.776979 -5.29025 0
M  V30 9904 C 929.531 -1.39401 -5.03354 0
M  V30 9905 H 931.225 -1.06359 -2.79872 0
M  V30 9906 H 928.771 -0.512894 -1.34556 0
M  V30 9907 H 930.724 1.00097 -4.09339 0
M  V30 9908 H 929.448 1.44064 -2.93109 0
M  V30 9909 H 928.107 -0.577445 -3.62024 0
M  V30 9910 H 927.755 1.61959 -4.76212 0
M  V30 9911 H 927.455 0.257448 -5.87036 0
M  V30 9912 H 928.979 1.18211 -5.99048 0
M  V30 9913 H 930.393 -1.06117 -5.63393 0
M  V30 9914 H 928.79 -1.84878 -5.70912 0
M  V30 9915 H 929.86 -2.17515 -4.33377 0
M  V30 9916 N 931.203 1.46865 -0.571711 0
M  V30 9917 C 932.153 2.27219 0.188503 0
M  V30 9918 C 933.137 1.35221 0.872019 0
M  V30 9919 O 934.329 1.59474 0.76793 0
M  V30 9920 C 931.458 3.21321 1.20862 0
M  V30 9921 C 930.544 4.20803 0.527783 0
M  V30 9922 N 930.935 5.04132 -0.410403 0
M  V30 9923 C 929.233 4.39128 0.779909 0
M  V30 9924 C 929.934 5.76071 -0.80728 0
M  V30 9925 N 928.91 5.43368 -0.158865 0
M  V30 9926 H 932.712 2.89034 -0.532611 0
M  V30 9927 H 930.226 1.57581 -0.392696 0
M  V30 9928 H 932.223 3.77586 1.76733 0
M  V30 9929 H 930.883 2.61065 1.93067 0
M  V30 9930 H 931.894 5.11911 -0.785351 0
M  V30 9931 H 928.571 3.90031 1.48937 0
M  V30 9932 H 929.961 6.53082 -1.57903 0
M  V30 9933 N 932.681 0.308908 1.54543 0
M  V30 9934 C 933.611 -0.556657 2.26768 0
M  V30 9935 C 934.592 -1.13145 1.27013 0
M  V30 9936 O 935.777 -1.15931 1.558 0
M  V30 9937 C 932.907 -1.72481 3.01443 0
M  V30 9938 C 931.861 -1.28001 4.08411 0
M  V30 9939 C 931.187 -2.53395 4.70845 0
M  V30 9940 C 932.487 -0.405497 5.20724 0
M  V30 9941 H 934.181 0.0457618 2.99365 0
M  V30 9942 H 931.727 0.0234495 1.43981 0
M  V30 9943 H 933.68 -2.3365 3.50693 0
M  V30 9944 H 932.404 -2.35359 2.26437 0
M  V30 9945 H 931.063 -0.69133 3.60022 0
M  V30 9946 H 930.711 -3.14604 3.92471 0
M  V30 9947 H 930.411 -2.2433 5.43093 0
M  V30 9948 H 931.935 -3.15352 5.22863 0
M  V30 9949 H 933.349 -0.923076 5.6582 0
M  V30 9950 H 931.746 -0.208282 5.99738 0
M  V30 9951 H 932.816 0.567412 4.81569 0
M  V30 9952 N 934.159 -1.57557 0.0367827 0
M  V30 9953 C 935.122 -2.09591 -0.927589 0
M  V30 9954 C 936.122 -1.01252 -1.24919 0
M  V30 9955 O 937.312 -1.27382 -1.18825 0
M  V30 9956 C 934.444 -2.56816 -2.24184 0
M  V30 9957 H 935.637 -2.96086 -0.476784 0
M  V30 9958 H 933.19 -1.54864 -0.211385 0
M  V30 9959 H 933.925 -1.73673 -2.73876 0
M  V30 9960 H 933.71 -3.35973 -2.0215 0
M  V30 9961 H 935.2 -2.97271 -2.93291 0
M  V30 9962 N 935.637 0.236453 -1.55816 0
M  V30 9963 C 936.6 1.27633 -1.90375 0
M  V30 9964 C 937.6 1.40557 -0.781048 0
M  V30 9965 O 938.79 1.39078 -1.04895 0
M  V30 9966 C 935.922 2.65247 -2.14142 0
M  V30 9967 H 937.115 0.982019 -2.83366 0
M  V30 9968 H 934.668 0.476215 -1.48869 0
M  V30 9969 H 935.403 2.99801 -1.23653 0
M  V30 9970 H 935.188 2.57246 -2.95917 0
M  V30 9971 H 936.678 3.40313 -2.42026 0
M  V30 9972 N 937.115 1.49373 0.502552 0
M  V30 9973 C 938.531 1.36101 0.833591 0
M  V30 9974 C 938.731 0.392911 1.97632 0
M  V30 9975 O 937.787 -0.175975 2.51886 0
M  V30 9976 C 939.1 2.76782 1.17526 0
M  V30 9977 C 940.648 2.85471 1.28356 0
M  V30 9978 C 941.123 4.26915 1.65853 0
M  V30 9979 N 942.614 4.29719 1.72905 0
M  V30 9980 C 943.349 5.36127 2.0336 0
M  V30 9981 N 942.845 6.52782 2.32049 0
M  V30 9982 N 944.638 5.23542 2.04598 0
M  V30 9983 H 936.789 2.10912 -0.251008 0
M  V30 9984 H 939.052 0.946696 -0.0497037 0
M  V30 9985 H 938.758 3.49314 0.408965 0
M  V30 9986 H 938.632 3.1205 2.11907 0
M  V30 9987 H 941.019 2.13177 2.04058 0
M  V30 9988 H 941.1 2.53787 0.320304 0
M  V30 9989 H 940.744 4.99735 0.907022 0
M  V30 9990 H 940.674 4.56063 2.63276 0
M  V30 9991 H 943.165 3.45586 1.529 0
M  V30 9992 H 943.478 7.29701 2.54471 0
M  V30 9993 H 941.823 6.56011 2.29509 0
M  V30 9994 H 945.014 4.31413 1.8166 0
M  V30 9995 H 945.187 6.06565 2.27998 0
M  V30 9996 N 938.594 -0.753485 1.38421 0
M  V30 9997 C 939.544 -1.85788 1.32162 0
M  V30 9998 C 940.528 -1.59577 0.20588 0
M  V30 9999 O 941.72 -1.71396 0.44186 0
M  V30 10000 C 938.849 -3.23498 1.14909 0
M  V30 10001 C 937.935 -3.556 2.31105 0
M  V30 10002 N 938.326 -3.58759 3.56547 0
M  V30 10003 C 936.624 -3.85866 2.23659 0
M  V30 10004 C 937.325 -3.8813 4.33278 0
M  V30 10005 N 936.301 -4.04966 3.62635 0
M  V30 10006 H 940.103 -1.86509 2.27138 0
M  V30 10007 H 937.617 -0.950843 1.31654 0
M  V30 10008 H 939.614 -4.02531 1.08509 0
M  V30 10009 H 938.274 -3.24029 0.20866 0
M  V30 10010 H 939.285 -3.40517 3.90216 0
M  V30 10011 H 935.962 -3.94112 1.37776 0
M  V30 10012 H 937.352 -3.97197 5.41926 0
M  V30 10013 N 940.072 -1.23292 -0.981677 0
M  V30 10014 C 941.32 -1.06214 -1.71939 0
M  V30 10015 C 941.641 0.401989 -1.90812 0
M  V30 10016 O 940.911 1.28825 -1.47584 0
M  V30 10017 H 939.491 -0.390042 -0.637084 0
M  V30 10018 H 942.153 -1.54988 -1.18173 0
M  V30 10019 H 941.249 -1.54904 -2.70945 0
M  V30 10020 N 941.55 1.18024 -1.04442 0
M  V30 10021 C 942.46 2.25436 -0.649276 0
M  V30 10022 C 943.476 1.70915 0.326189 0
M  V30 10023 O 944.652 2.00592 0.180174 0
M  V30 10024 C 941.717 3.46693 -0.0222558 0
M  V30 10025 C 940.778 4.16332 -1.0472 0
M  V30 10026 C 940.011 5.31799 -0.450011 0
M  V30 10027 O 940.234 5.65544 0.742717 0
M  V30 10028 O 939.168 5.90209 -1.18056 0
M  V30 10029 H 942.994 2.61508 -1.54426 0
M  V30 10030 H 940.579 1.25178 -0.81552 0
M  V30 10031 H 942.461 4.20132 0.326597 0
M  V30 10032 H 941.136 3.12436 0.84649 0
M  V30 10033 H 940.043 3.44944 -1.44792 0
M  V30 10034 H 941.376 4.54598 -1.88684 0
M  V30 10035 N 943.028 0.824394 1.34319 0
M  V30 10036 C 943.938 0.24932 2.33271 0
M  V30 10037 C 944.954 -0.617066 1.62691 0
M  V30 10038 O 946.13 -0.524616 1.94447 0
M  V30 10039 C 943.195 -0.578094 3.41846 0
M  V30 10040 C 942.256 0.310866 4.28173 0
M  V30 10041 C 941.489 -0.477153 5.31563 0
M  V30 10042 O 941.712 -1.71028 5.44156 0
M  V30 10043 O 940.646 0.141287 6.01734 0
M  V30 10044 H 944.472 1.06837 2.84288 0
M  V30 10045 H 942.057 0.58657 1.37403 0
M  V30 10046 H 943.939 -1.04878 4.0814 0
M  V30 10047 H 942.614 -1.37444 2.93071 0
M  V30 10048 H 941.521 0.829081 3.64797 0
M  V30 10049 H 942.854 1.07161 4.80393 0
M  V30 10050 N 944.506 -1.46559 0.579492 0
M  V30 10051 C 945.469 -2.28739 -0.145371 0
M  V30 10052 C 946.469 -1.38211 -0.821854 0
M  V30 10053 O 947.659 -1.6062 -0.674302 0
M  V30 10054 C 944.791 -3.18507 -1.21515 0
M  V30 10055 H 945.984 -2.94301 0.576786 0
M  V30 10056 H 943.537 -1.52616 0.337327 0
M  V30 10057 H 944.272 -2.57685 -1.96899 0
M  V30 10058 H 944.057 -3.85157 -0.734616 0
M  V30 10059 H 945.547 -3.80369 -1.72363 0
M  V30 10060 N 945.984 -0.3171 -1.54377 0
M  V30 10061 C 947.23 0.287836 -2.00747 0
M  V30 10062 C 947.563 1.52292 -1.20502 0
M  V30 10063 O 946.838 1.92391 -0.285626 0
M  V30 10064 C 947.121 0.628423 -3.54574 0
M  V30 10065 C 946.974 -0.616922 -4.45549 0
M  V30 10066 C 948.293 1.44862 -4.15575 0
M  V30 10067 H 945.412 0.103144 -0.729747 0
M  V30 10068 H 948.054 -0.432396 -1.85014 0
M  V30 10069 H 946.204 1.24203 -3.68111 0
M  V30 10070 H 947.876 -1.25526 -4.43893 0
M  V30 10071 H 946.119 -1.24706 -4.15489 0
M  V30 10072 H 946.79 -0.334243 -5.50987 0
M  V30 10073 H 949.266 0.930015 -4.05574 0
M  V30 10074 H 948.142 1.6557 -5.23333 0
M  V30 10075 H 948.403 2.44279 -3.68484 0
M  V30 10076 N 947.462 1.57535 -0.0451378 0
M  V30 10077 C 948.708 1.92736 0.630921 0
M  V30 10078 C 949.041 0.923265 1.70849 0
M  V30 10079 O 948.316 -0.0516512 1.94431 0
M  V30 10080 C 948.599 3.38348 1.23259 0
M  V30 10081 C 948.452 4.49503 0.16349 0
M  V30 10082 C 949.771 3.84233 2.14599 0
M  V30 10083 H 946.89 0.700884 0.227883 0
M  V30 10084 H 949.532 1.89706 -0.10567 0
M  V30 10085 H 947.682 3.41061 1.86037 0
M  V30 10086 H 949.354 4.58919 -0.46808 0
M  V30 10087 H 947.597 4.30802 -0.509166 0
M  V30 10088 H 948.268 5.48457 0.624382 0
M  V30 10089 H 950.744 3.83358 1.6179 0
M  V30 10090 H 949.62 4.86781 2.53644 0
M  V30 10091 H 949.881 3.20646 3.04366 0
M  V30 10092 N 948.94 -0.228186 1.55939 0
M  V30 10093 C 950.165 -0.974795 1.83064 0
M  V30 10094 C 950.59 -1.77426 0.624624 0
M  V30 10095 O 949.948 -1.76211 -0.426556 0
M  V30 10096 C 949.996 -1.87342 3.08116 0
M  V30 10097 O 949.1 -2.96784 2.86344 0
M  V30 10098 H 948.441 -0.276379 0.603747 0
M  V30 10099 H 950.971 -0.243507 2.03146 0
M  V30 10100 H 950.981 -2.28451 3.38045 0
M  V30 10101 H 949.656 -1.28575 3.95526 0
M  V30 10102 H 948.233 -2.59669 2.67631 0
M  V30 10103 N 950.418 -1.49637 -0.494624 0
M  V30 10104 C 951.381 -1.66252 -1.57775 0
M  V30 10105 C 952.381 -0.534054 -1.51672 0
M  V30 10106 O 953.571 -0.800637 -1.54711 0
M  V30 10107 C 950.703 -1.66584 -2.97426 0
M  V30 10108 H 951.896 -2.62864 -1.4437 0
M  V30 10109 H 949.449 -1.38764 -0.719323 0
M  V30 10110 H 950.184 -0.715798 -3.16302 0
M  V30 10111 H 949.969 -2.48543 -3.03264 0
M  V30 10112 H 951.459 -1.81474 -3.76108 0
M  V30 10113 N 951.896 0.746133 -1.38819 0
M  V30 10114 C 952.826 1.87344 -1.39372 0
M  V30 10115 C 953.807 1.68123 -0.258583 0
M  V30 10116 O 954.992 1.88606 -0.462769 0
M  V30 10117 C 952.122 3.24962 -1.22543 0
M  V30 10118 C 951.076 3.58799 -2.33339 0
M  V30 10119 C 950.402 4.95235 -2.01609 0
M  V30 10120 C 951.702 3.62911 -3.75624 0
M  V30 10121 H 953.396 1.87138 -2.33709 0
M  V30 10122 H 950.942 0.898937 -1.12495 0
M  V30 10123 H 952.895 4.03488 -1.21554 0
M  V30 10124 H 951.619 3.25667 -0.246707 0
M  V30 10125 H 950.278 2.82596 -2.33527 0
M  V30 10126 H 949.926 4.92508 -1.02202 0
M  V30 10127 H 949.626 5.18843 -2.75819 0
M  V30 10128 H 951.15 5.76131 -2.02251 0
M  V30 10129 H 952.564 4.31535 -3.77426 0
M  V30 10130 H 950.961 3.98031 -4.491 0
M  V30 10131 H 952.031 2.62967 -4.07402 0
M  V30 10132 N 953.375 1.23811 0.975125 0
M  V30 10133 C 954.305 1.04846 2.08638 0
M  V30 10134 C 955.286 -0.0362859 1.70061 0
M  V30 10135 O 956.471 0.12937 1.93769 0
M  V30 10136 C 953.601 0.644534 3.41267 0
M  V30 10137 C 952.555 1.67722 3.93768 0
M  V30 10138 C 951.881 1.12857 5.22654 0
M  V30 10139 C 953.181 3.07147 4.22443 0
M  V30 10140 H 954.875 1.97795 2.24761 0
M  V30 10141 H 952.421 0.952397 1.08006 0
M  V30 10142 H 954.374 0.498887 4.18436 0
M  V30 10143 H 953.098 -0.320641 3.25022 0
M  V30 10144 H 951.757 1.81095 3.18748 0
M  V30 10145 H 951.405 0.154227 5.02764 0
M  V30 10146 H 951.105 1.81862 5.58749 0
M  V30 10147 H 952.629 0.994891 6.0244 0
M  V30 10148 H 954.043 2.97045 4.90344 0
M  V30 10149 H 952.44 3.73437 4.6975 0
M  V30 10150 H 953.51 3.55743 3.29507 0
M  V30 10151 N 954.853 -1.17469 1.05066 0
M  V30 10152 C 955.785 -2.20974 0.608526 0
M  V30 10153 C 956.798 -1.59481 -0.327066 0
M  V30 10154 O 957.987 -1.78096 -0.12 0
M  V30 10155 C 955.087 -3.38652 -0.12969 0
M  V30 10156 C 954.26 -4.29716 0.816285 0
M  V30 10157 C 953.319 -5.26064 0.119556 0
M  V30 10158 O 952.345 -5.64194 0.753241 0
M  V30 10159 N 953.547 -5.69126 -1.14347 0
M  V30 10160 H 956.312 -2.59529 1.49882 0
M  V30 10161 H 953.873 -1.32355 0.932406 0
M  V30 10162 H 955.865 -4.00139 -0.605886 0
M  V30 10163 H 954.435 -2.98705 -0.921638 0
M  V30 10164 H 953.655 -3.6568 1.47213 0
M  V30 10165 H 954.943 -4.87449 1.45845 0
M  V30 10166 H 954.341 -5.4022 -1.67866 0
M  V30 10167 H 952.898 -6.32764 -1.56376 0
M  V30 10168 N 956.331 -0.831506 -1.3388 0
M  V30 10169 C 957.571 -0.429648 -1.99833 0
M  V30 10170 C 957.935 0.990796 -1.6446 0
M  V30 10171 O 959.136 1.49599 -2.23324 0
M  V30 10172 C 957.407 -0.635558 -3.51704 0
M  V30 10173 S 958.966 -0.327824 -4.37574 0
M  V30 10174 H 955.784 -0.161939 -0.692313 0
M  V30 10175 H 958.386 -1.07919 -1.63015 0
M  V30 10176 H 957.09 -1.66887 -3.74936 0
M  V30 10177 H 956.621 0.0284073 -3.9339 0
M  V30 10178 H 958.636 0.855231 -4.88774 0
M  V30 10179 N 957.809 1.4625 -0.587256 0
M  V30 10180 C 959.057 2.01963 -0.0744273 0
M  V30 10181 C 959.378 1.46065 1.29189 0
M  V30 10182 O 958.648 0.647077 1.84905 0
M  V30 10183 H 957.228 0.746597 -0.0245236 0
M  V30 10184 H 959.89 1.79299 -0.764063 0
M  V30 10185 H 958.986 3.12099 -0.00884894 0
M  V30 10186 N 959.287 0.325282 1.54207 0
M  V30 10187 C 960.25 -0.527228 2.23054 0
M  V30 10188 C 961.25 -1.04217 1.22456 0
M  V30 10189 O 962.44 -0.934325 1.47024 0
M  V30 10190 C 959.572 -1.7325 2.93594 0
M  V30 10191 H 960.765 0.0746423 2.99807 0
M  V30 10192 H 958.318 0.0763872 1.56113 0
M  V30 10193 H 959.053 -2.37356 2.20981 0
M  V30 10194 H 958.838 -1.37065 3.67363 0
M  V30 10195 H 960.328 -2.3376 3.46043 0
M  V30 10196 N 960.765 -1.57509 0.0534917 0
M  V30 10197 C 962.042 -1.84137 -0.659767 0
M  V30 10198 C 962.422 -0.942362 -1.88899 0
M  V30 10199 O 961.77 -0.00398566 -2.285 0
M  V30 10200 C 961.98 -3.33919 -1.01486 0
M  V30 10201 C 963.328 -4.00989 -1.39616 0
M  V30 10202 O 964.352 -3.38557 -1.10713 0
M  V30 10203 O 963.211 -5.11071 -1.93567 0
M  V30 10204 H 960.305 -0.760081 -0.325893 0
M  V30 10205 H 962.851 -1.69497 0.0830315 0
M  V30 10206 H 961.623 -3.91046 -0.141041 0
M  V30 10207 H 961.246 -3.53755 -1.81503 0
M  V30 10208 N 962.243 0.219913 -1.56058 0
M  V30 10209 C 963.654 0.786766 -1.69313 0
M  V30 10210 C 964.005 1.84916 -0.655782 0
M  V30 10211 O 963.13 2.1554 0.192772 0
M  V30 10212 C 963.725 1.43387 -3.06962 0
M  V30 10213 C 962.284 1.94809 -3.22066 0
M  V30 10214 C 961.431 0.808863 -2.65241 0
M  V30 10215 H 964.382 -0.00476777 -1.58699 0
M  V30 10216 H 964.403 2.30272 -3.02911 0
M  V30 10217 H 963.915 0.660405 -3.8244 0
M  V30 10218 H 962.016 2.74952 -2.5146 0
M  V30 10219 H 962.129 2.12694 -4.293 0
M  V30 10220 H 960.493 1.21661 -2.23765 0
M  V30 10221 H 961.276 0.0480458 -3.43266 0
M  V30 10222 N 963.721 1.49897 0.486681 0
M  V30 10223 C 964.669 1.68125 1.60738 0
M  V30 10224 C 965.663 0.547097 1.60322 0
M  V30 10225 O 966.869 0.727153 1.64659 0
M  V30 10226 H 963.244 0.530391 0.533094 0
M  V30 10227 H 965.215 2.62165 1.42521 0
M  V30 10228 C 963.964 1.77827 2.98786 0
M  V30 10229 H 963.287 2.6448 2.99818 0
M  V30 10230 H 964.727 1.94611 3.76699 0
M  V30 10231 C 963.186 0.526287 3.32764 0
M  V30 10232 O 963.716 -0.341607 4.00245 0
M  V30 10233 N 961.922 0.384947 2.88039 0
M  V30 10234 H 961.469 1.09222 2.33299 0
M  V30 10235 H 961.427 -0.451618 3.11139 0
M  V30 10236 N 965.199 -0.738761 1.39212 0
M  V30 10237 C 966.162 -1.83441 1.37412 0
M  V30 10238 C 967.162 -1.58484 0.271908 0
M  V30 10239 O 968.352 -1.65954 0.529609 0
M  V30 10240 C 965.484 -3.21167 1.143 0
M  V30 10241 H 966.677 -1.86441 2.34904 0
M  V30 10242 H 964.23 -0.942023 1.24722 0
M  V30 10243 H 964.965 -3.23829 0.174756 0
M  V30 10244 H 964.75 -3.40678 1.94116 0
M  V30 10245 H 966.24 -4.01231 1.15773 0
M  V30 10246 N 966.677 -1.24326 -0.968545 0
M  V30 10247 C 967.64 -1.03591 -2.04454 0
M  V30 10248 C 968.64 0.0064809 -1.60799 0
M  V30 10249 O 969.83 -0.234404 -1.72616 0
M  V30 10250 C 966.962 -0.56992 -3.36102 0
M  V30 10251 H 968.155 -1.99092 -2.24282 0
M  V30 10252 H 965.708 -1.06537 -1.14366 0
M  V30 10253 H 966.443 0.388325 -3.21967 0
M  V30 10254 H 966.228 -1.32227 -3.69132 0
M  V30 10255 H 967.718 -0.445854 -4.15213 0
M  V30 10256 N 968.156 1.1691 -1.05688 0
M  V30 10257 C 969.066 2.24735 -0.67315 0
M  V30 10258 C 970.082 1.71252 0.308043 0
M  V30 10259 O 971.258 2.00772 0.158889 0
M  V30 10260 C 968.323 3.4665 -0.059026 0
M  V30 10261 C 967.384 4.15198 -1.0913 0
M  V30 10262 C 966.617 5.31292 -0.50639 0
M  V30 10263 O 966.84 5.663 0.682692 0
M  V30 10264 O 965.774 5.88923 -1.2431 0
M  V30 10265 H 969.6 2.59855 -1.57191 0
M  V30 10266 H 967.185 1.24306 -0.828751 0
M  V30 10267 H 969.067 4.20455 0.282018 0
M  V30 10268 H 967.742 3.13316 0.813304 0
M  V30 10269 H 966.649 3.43389 -1.48442 0
M  V30 10270 H 967.982 4.52571 -1.93495 0
M  V30 10271 N 969.634 0.838594 1.33437 0
M  V30 10272 C 970.566 0.229006 2.28053 0
M  V30 10273 C 971.579 -0.590103 1.51729 0
M  V30 10274 O 972.768 -0.417218 1.73556 0
M  V30 10275 C 969.868 -0.696251 3.31671 0
M  V30 10276 C 969.041 0.0834606 4.3732 0
M  V30 10277 C 968.1 -0.765097 5.20608 0
M  V30 10278 O 967.126 -0.2044 5.68833 0
M  V30 10279 N 968.328 -2.08249 5.4186 0
M  V30 10280 H 971.093 1.04196 2.81004 0
M  V30 10281 H 968.654 0.697031 1.46127 0
M  V30 10282 H 970.646 -1.26889 3.84293 0
M  V30 10283 H 969.216 -1.40992 2.78998 0
M  V30 10284 H 968.436 0.837481 3.85201 0
M  V30 10285 H 969.724 0.619613 5.05013 0
M  V30 10286 H 969.122 -2.56156 5.04381 0
M  V30 10287 H 967.679 -2.60362 5.97541 0
M  V30 10288 N 971.112 -1.45937 0.595003 0
M  V30 10289 C 972.337 -2.07207 0.0894416 0
M  V30 10290 C 972.762 -1.43884 -1.21157 0
M  V30 10291 O 972.12 -0.526998 -1.73472 0
M  V30 10292 C 972.168 -3.60565 -0.0499828 0
M  V30 10293 O 971.272 -3.97364 -1.10342 0
M  V30 10294 H 970.613 -0.660471 0.0683627 0
M  V30 10295 H 973.143 -1.87386 0.82144 0
M  V30 10296 H 973.153 -4.0722 -0.252234 0
M  V30 10297 H 971.828 -4.06044 0.90006 0
M  V30 10298 H 970.405 -3.62401 -0.878645 0
M  V30 10299 N 972.59 -0.333456 -1.54032 0
M  V30 10300 C 973.838 0.265608 -2.00347 0
M  V30 10301 C 974.159 1.51873 -1.2231 0
M  V30 10302 O 973.429 1.93142 -0.327549 0
M  V30 10303 H 972.009 0.101135 -0.740122 0
M  V30 10304 H 974.671 -0.452285 -1.8958 0
M  V30 10305 H 973.767 0.51511 -3.0782 0
M  V30 10306 N 974.068 1.57479 -0.061844 0
M  V30 10307 C 975.314 1.9421 0.604485 0
M  V30 10308 C 975.669 0.941011 1.67818 0
M  V30 10309 O 974.962 -0.0382264 1.91562 0
M  V30 10310 C 975.156 3.35394 1.23474 0
M  V30 10311 C 974.985 4.49144 0.223628 0
M  V30 10312 C 973.755 5.04949 -0.188187 0
M  V30 10313 C 975.953 5.11508 -0.535193 0
M  V30 10314 N 973.935 6.02235 -1.19105 0
M  V30 10315 C 975.306 6.04199 -1.39082 0
M  V30 10316 C 977.361 4.94364 -0.592346 0
M  V30 10317 C 976.064 6.81587 -2.2985 0
M  V30 10318 C 978.09 5.72388 -1.48749 0
M  V30 10319 C 977.452 6.6472 -2.33082 0
M  V30 10320 H 973.551 0.757931 0.192522 0
M  V30 10321 H 976.135 1.9422 -0.136667 0
M  V30 10322 H 974.306 3.36141 1.94587 0
M  V30 10323 H 976.038 3.59387 1.86073 0
M  V30 10324 H 972.793 4.73207 0.192933 0
M  V30 10325 H 973.217 6.55575 -1.68969 0
M  V30 10326 H 977.859 4.22776 0.045445 0
M  V30 10327 H 975.577 7.5246 -2.94669 0
M  V30 10328 H 979.163 5.61146 -1.53642 0
M  V30 10329 H 978.043 7.2404 -3.01225 0
M  V30 10330 N 975.546 -0.211634 1.56173 0
M  V30 10331 C 976.774 -0.951184 1.83739 0
M  V30 10332 C 977.189 -1.7754 0.642252 0
M  V30 10333 O 976.546 -1.78302 -0.389174 0
M  V30 10334 C 976.597 -1.86075 3.09933 0
M  V30 10335 O 976.318 -1.06983 4.24837 0
M  V30 10336 C 977.819 -2.71337 3.50559 0
M  V30 10337 H 975.039 -0.278312 0.61056 0
M  V30 10338 H 977.583 -0.223871 2.03271 0
M  V30 10339 H 975.738 -2.54189 2.92347 0
M  V30 10340 H 976.152 -1.68815 4.9659 0
M  V30 10341 H 977.626 -3.30843 4.41868 0
M  V30 10342 H 978.103 -3.44226 2.72773 0
M  V30 10343 H 978.709 -2.0862 3.70618 0
M  V30 10344 N 977.024 -1.50153 -0.478725 0
M  V30 10345 C 978.435 -1.53706 -1.05978 0
M  V30 10346 C 978.786 -0.336112 -1.933 0
M  V30 10347 O 977.911 0.551803 -2.09246 0
M  V30 10348 C 978.506 -2.78541 -1.92874 0
M  V30 10349 C 977.065 -2.848 -2.46102 0
M  V30 10350 C 976.212 -2.47902 -1.24257 0
M  V30 10351 H 979.163 -1.56528 -0.261664 0
M  V30 10352 H 979.184 -2.59964 -2.77847 0
M  V30 10353 H 978.696 -3.6593 -1.29293 0
M  V30 10354 H 976.797 -2.01744 -3.13257 0
M  V30 10355 H 976.91 -3.87511 -2.81731 0
M  V30 10356 H 975.274 -2.0017 -1.57493 0
M  V30 10357 H 976.057 -3.3759 -0.62351 0
M  V30 10358 N 978.502 0.731368 -1.39602 0
M  V30 10359 C 979.432 1.85855 -1.41351 0
M  V30 10360 C 980.413 1.67839 -0.2764 0
M  V30 10361 O 981.598 1.88104 -0.482747 0
M  V30 10362 C 978.728 3.23644 -1.25983 0
M  V30 10363 C 977.682 3.56304 -2.37132 0
M  V30 10364 C 977.008 4.93069 -2.0685 0
M  V30 10365 C 978.308 3.58906 -3.79452 0
M  V30 10366 H 980.002 1.84648 -2.3568 0
M  V30 10367 H 977.548 0.886955 -1.13442 0
M  V30 10368 H 979.501 4.02176 -1.25826 0
M  V30 10369 H 978.225 3.25387 -0.281234 0
M  V30 10370 H 976.884 2.80104 -2.36511 0
M  V30 10371 H 976.532 4.91396 -1.0742 0
M  V30 10372 H 976.232 5.15888 -2.81306 0
M  V30 10373 H 977.756 5.73953 -2.0835 0
M  V30 10374 H 979.17 4.27508 -3.81982 0
M  V30 10375 H 977.567 3.93246 -4.53297 0
M  V30 10376 H 978.637 2.58631 -4.10168 0
M  V30 10377 N 979.98 1.24838 0.961938 0
M  V30 10378 C 980.93 1.01276 2.04272 0
M  V30 10379 C 981.914 -0.0478239 1.60829 0
M  V30 10380 O 983.106 0.166616 1.76214 0
M  V30 10381 C 980.235 0.625659 3.37551 0
M  V30 10382 C 979.321 1.72262 3.87539 0
M  V30 10383 N 979.712 2.95644 4.104 0
M  V30 10384 C 978.01 1.60146 4.16256 0
M  V30 10385 C 978.711 3.66796 4.51482 0
M  V30 10386 N 977.687 2.94383 4.56989 0
M  V30 10387 H 981.489 1.94956 2.19931 0
M  V30 10388 H 979.003 1.15049 1.14619 0
M  V30 10389 H 981 0.438072 4.14592 0
M  V30 10390 H 979.66 -0.303887 3.23275 0
M  V30 10391 H 980.671 3.31764 3.97685 0
M  V30 10392 H 977.348 0.740353 4.10883 0
M  V30 10393 H 978.738 4.72664 4.77534 0
M  V30 10394 N 981.458 -1.16348 1.06306 0
M  V30 10395 C 982.388 -2.2291 0.695234 0
M  V30 10396 C 983.369 -1.67208 -0.312343 0
M  V30 10397 O 984.554 -1.93293 -0.187442 0
M  V30 10398 C 981.684 -3.47205 0.0810149 0
M  V30 10399 C 980.638 -4.15801 1.01458 0
M  V30 10400 C 979.964 -5.3405 0.263656 0
M  V30 10401 C 981.264 -4.66766 2.34365 0
M  V30 10402 H 982.958 -2.53934 1.58613 0
M  V30 10403 H 980.504 -1.22056 0.76409 0
M  V30 10404 H 982.457 -4.2098 -0.18818 0
M  V30 10405 H 981.181 -3.15482 -0.844897 0
M  V30 10406 H 979.84 -3.43954 1.26852 0
M  V30 10407 H 979.488 -4.9858 -0.665378 0
M  V30 10408 H 979.188 -5.80885 0.88582 0
M  V30 10409 H 980.712 -6.106 0.00200994 0
M  V30 10410 H 982.126 -5.3212 2.13356 0
M  V30 10411 H 980.523 -5.24223 2.9208 0
M  V30 10412 H 981.593 -3.82969 2.97426 0
M  V30 10413 N 982.937 -0.845659 -1.3299 0
M  V30 10414 C 983.9 -0.288905 -2.27372 0
M  V30 10415 C 984.9 0.546263 -1.51237 0
M  V30 10416 O 986.09 0.359072 -1.70459 0
M  V30 10417 C 983.222 0.59224 -3.35716 0
M  V30 10418 H 984.415 -1.12181 -2.78128 0
M  V30 10419 H 981.968 -0.619276 -1.43508 0
M  V30 10420 H 982.703 1.44732 -2.90212 0
M  V30 10421 H 982.488 -0.00543255 -3.921 0
M  V30 10422 H 983.978 0.974848 -4.06062 0
M  V30 10423 N 984.415 1.45619 -0.602734 0
M  V30 10424 C 985.661 2.02572 -0.0961759 0
M  V30 10425 C 985.994 1.47076 1.26815 0
M  V30 10426 O 985.269 0.643566 1.83544 0
M  V30 10427 C 985.552 3.60062 -0.0520032 0
M  V30 10428 C 985.405 4.25901 -1.44665 0
M  V30 10429 C 986.724 4.35446 0.638342 0
M  V30 10430 H 983.843 0.736099 -0.0364238 0
M  V30 10431 H 986.485 1.7353 -0.773776 0
M  V30 10432 H 984.635 3.84936 0.525032 0
M  V30 10433 H 986.307 4.12228 -2.0704 0
M  V30 10434 H 984.55 3.84489 -2.00874 0
M  V30 10435 H 985.221 5.34779 -1.36803 0
M  V30 10436 H 987.697 4.15837 0.147926 0
M  V30 10437 H 986.573 5.45176 0.63834 0
M  V30 10438 H 986.834 4.07962 1.70351 0
M  V30 10439 N 985.893 0.34162 1.53853 0
M  V30 10440 C 986.825 -0.550383 2.22494 0
M  V30 10441 C 987.838 -1.0655 1.23089 0
M  V30 10442 O 989.027 -0.975985 1.49455 0
M  V30 10443 C 986.127 -1.76995 2.89009 0
M  V30 10444 C 985.3 -1.39045 4.14711 0
M  V30 10445 C 984.359 -2.46947 4.64654 0
M  V30 10446 O 983.385 -2.10336 5.28912 0
M  V30 10447 N 984.587 -3.7817 4.40418 0
M  V30 10448 H 987.352 0.037456 2.99677 0
M  V30 10449 H 984.913 0.165654 1.6105 0
M  V30 10450 H 986.905 -2.48608 3.19337 0
M  V30 10451 H 985.475 -2.2652 2.15424 0
M  V30 10452 H 984.695 -0.505161 3.9095 0
M  V30 10453 H 985.983 -1.11284 4.96481 0
M  V30 10454 H 985.381 -4.10704 3.89023 0
M  V30 10455 H 983.938 -4.45959 4.75356 0
M  V30 10456 N 987.371 -1.57444 0.0701946 0
M  V30 10457 C 988.787 -1.57009 -0.286431 0
M  V30 10458 C 988.987 -1.07946 -1.70147 0
M  V30 10459 O 988.043 -0.744622 -2.41271 0
M  V30 10460 C 989.356 -3.00542 -0.0975466 0
M  V30 10461 C 990.904 -3.12553 -0.167205 0
M  V30 10462 C 991.379 -4.58 -0.00662047 0
M  V30 10463 N 992.87 -4.63158 -0.0622778 0
M  V30 10464 C 993.605 -5.73388 0.0375831 0
M  V30 10465 N 993.101 -6.92537 0.190873 0
M  V30 10466 N 994.894 -5.62097 -0.0193672 0
M  V30 10467 H 987.045 -1.87651 0.995023 0
M  V30 10468 H 989.308 -0.865006 0.387902 0
M  V30 10469 H 989.014 -3.40543 0.878822 0
M  V30 10470 H 988.888 -3.67485 -0.850547 0
M  V30 10471 H 991.275 -2.72439 -1.13406 0
M  V30 10472 H 991.356 -2.48251 0.616871 0
M  V30 10473 H 991 -4.98803 0.956992 0
M  V30 10474 H 990.93 -5.20332 -0.810081 0
M  V30 10475 H 993.421 -3.77475 -0.179229 0
M  V30 10476 H 993.734 -7.72365 0.25926 0
M  V30 10477 H 992.079 -6.94632 0.226214 0
M  V30 10478 H 995.27 -4.67897 -0.137815 0
M  V30 10479 H 995.443 -6.4797 0.0619121 0
M  V30 10480 N 988.849 0.203349 -1.56283 0
M  V30 10481 C 990.074 0.945548 -1.84592 0
M  V30 10482 C 990.499 1.7641 -0.652772 0
M  V30 10483 O 989.857 1.76867 0.398468 0
M  V30 10484 C 989.905 1.82416 -3.11057 0
M  V30 10485 O 989.009 2.92191 -2.9103 0
M  V30 10486 H 988.35 0.266739 -0.608068 0
M  V30 10487 H 990.88 0.211158 -2.03507 0
M  V30 10488 H 990.89 2.23044 -3.41636 0
M  V30 10489 H 989.565 1.22267 -3.97522 0
M  V30 10490 H 988.142 2.55378 -2.71728 0
M  V30 10491 N 990.327 1.50405 0.470755 0
M  V30 10492 C 991.555 1.65168 1.24608 0
M  V30 10493 C 991.97 0.335153 1.85801 0
M  V30 10494 O 991.327 -0.682919 1.69241 0
M  V30 10495 C 991.378 2.74305 2.35455 0
M  V30 10496 O 991.099 4.00854 1.76771 0
M  V30 10497 C 992.6 3.00044 3.26326 0
M  V30 10498 H 989.82 0.555186 0.376842 0
M  V30 10499 H 992.364 1.9663 0.56187 0
M  V30 10500 H 990.519 2.45536 2.99651 0
M  V30 10501 H 990.933 4.61211 2.49769 0
M  V30 10502 H 992.407 3.8007 4.00313 0
M  V30 10503 H 992.884 2.11128 3.85126 0
M  V30 10504 H 993.49 3.30345 2.67866 0
M  V30 10505 N 991.805 -0.723954 1.39988 0
M  V30 10506 C 993.052 -1.48371 1.37812 0
M  V30 10507 C 993.38 -1.94487 -0.0223285 0
M  V30 10508 O 992.635 -1.67906 -1.00529 0
M  V30 10509 C 992.934 -2.73004 2.30659 0
M  V30 10510 C 992.6 -2.45698 3.78078 0
M  V30 10511 C 991.262 -2.37961 4.18244 0
M  V30 10512 C 993.614 -2.22601 4.71273 0
M  V30 10513 C 990.942 -2.05183 5.49652 0
M  V30 10514 C 993.294 -1.91339 6.0297 0
M  V30 10515 C 991.958 -1.82078 6.42187 0
M  V30 10516 H 991.228 -0.542929 0.504291 0
M  V30 10517 H 993.875 -0.829986 1.72579 0
M  V30 10518 H 992.18 -3.43174 1.89048 0
M  V30 10519 H 993.877 -3.31068 2.26263 0
M  V30 10520 H 990.467 -2.52603 3.46251 0
M  V30 10521 H 994.651 -2.2754 4.41066 0
M  V30 10522 H 989.907 -1.96544 5.78948 0
M  V30 10523 H 994.081 -1.72479 6.74703 0
M  V30 10524 H 991.708 -1.56446 7.43928 0
M  V30 10525 N 993.283 -1.25346 -0.955304 0
M  V30 10526 C 994.213 -1.08152 -2.06943 0
M  V30 10527 C 995.194 0.00922598 -1.70097 0
M  V30 10528 O 996.379 -0.160181 -1.93538 0
M  V30 10529 C 993.509 -0.698745 -3.40198 0
M  V30 10530 C 992.463 -1.73965 -3.9105 0
M  V30 10531 C 991.789 -1.21158 -5.20792 0
M  V30 10532 C 993.089 -3.13829 -4.17503 0
M  V30 10533 H 994.783 -2.01345 -2.21586 0
M  V30 10534 H 992.329 -0.969459 -1.06478 0
M  V30 10535 H 994.282 -0.565394 -4.1759 0
M  V30 10536 H 993.006 0.268892 -3.25491 0
M  V30 10537 H 991.665 -1.86143 -3.15827 0
M  V30 10538 H 991.313 -0.234193 -5.02455 0
M  V30 10539 H 991.013 -1.90728 -5.55785 0
M  V30 10540 H 992.537 -1.09061 -6.00781 0
M  V30 10541 H 993.951 -3.04809 -4.85556 0
M  V30 10542 H 992.348 -3.80863 -4.63749 0
M  V30 10543 H 993.418 -3.6094 -3.23806 0
M  V30 10544 N 994.761 1.15782 -1.06922 0
M  V30 10545 C 995.986 1.90896 -0.810771 0
M  V30 10546 C 996.411 1.77246 0.629714 0
M  V30 10547 O 995.769 1.10215 1.43953 0
M  V30 10548 C 995.817 3.39397 -1.21829 0
M  V30 10549 O 994.921 4.10818 -0.360934 0
M  V30 10550 H 994.262 0.594497 -0.295752 0
M  V30 10551 H 996.792 1.46652 -1.42669 0
M  V30 10552 H 996.802 3.90181 -1.19259 0
M  V30 10553 H 995.477 3.4865 -2.2675 0
M  V30 10554 H 994.054 3.7019 -0.448748 0
M  V30 10555 N 996.239 0.8527 1.3254 0
M  V30 10556 C 997.485 0.455798 1.97612 0
M  V30 10557 C 997.818 -0.985616 1.6733 0
M  V30 10558 O 997.093 -1.69129 0.960493 0
M  V30 10559 C 997.376 0.69312 3.53366 0
M  V30 10560 C 997.229 2.18281 3.93285 0
M  V30 10561 C 998.548 0.148236 4.3985 0
M  V30 10562 H 995.667 0.167078 0.717812 0
M  V30 10563 H 998.309 1.07076 1.56954 0
M  V30 10564 H 996.459 0.169677 3.88129 0
M  V30 10565 H 998.131 2.77218 3.68711 0
M  V30 10566 H 996.374 2.66206 3.42515 0
M  V30 10567 H 997.045 2.29957 5.01821 0
M  V30 10568 H 999.521 0.595834 4.11812 0
M  V30 10569 H 998.397 0.343873 5.47822 0
M  V30 10570 H 998.658 -0.948872 4.31797 0
M  V30 10571 N 997.718 -1.45297 0.610449 0
M  V30 10572 C 998.967 -2.0143 0.104323 0
M  V30 10573 C 999.28 -1.48431 -1.27388 0
M  V30 10574 O 1000.49 -1.96558 -1.87289 0
M  V30 10575 C 998.942 -3.59644 0.135812 0
M  V30 10576 C 998.55 -4.2164 1.51405 0
M  V30 10577 C 1000.29 -4.2333 -0.314922 0
M  V30 10578 C 998.201 -5.72015 1.50176 0
M  V30 10579 H 997.131 -0.753176 0.035233 0
M  V30 10580 H 999.782 -1.66738 0.7662 0
M  V30 10581 H 998.164 -3.91538 -0.592773 0
M  V30 10582 H 999.338 -4.01315 2.26457 0
M  V30 10583 H 997.653 -3.70159 1.90712 0
M  V30 10584 H 1000.25 -5.33597 -0.343335 0
M  V30 10585 H 1000.59 -3.94206 -1.33817 0
M  V30 10586 H 1001.13 -3.96163 0.360489 0
M  V30 10587 H 997.865 -6.05842 2.50271 0
M  V30 10588 H 997.385 -5.94523 0.793869 0
M  V30 10589 H 999.064 -6.35266 1.22665 0
M  V30 10590 N 999.196 -0.349774 -1.5367 0
M  V30 10591 C 1000.14 0.519396 -2.26727 0
M  V30 10592 C 1001.14 1.09673 -1.29105 0
M  V30 10593 O 1002.34 1.04176 -1.46791 0
M  V30 10594 H 998.719 0.186192 -0.728585 0
M  V30 10595 H 1000.69 -0.118736 -2.98164 0
M  V30 10596 C 999.439 1.65535 -3.05767 0
M  V30 10597 H 998.762 1.22038 -3.80719 0
M  V30 10598 H 1000.2 2.23856 -3.6009 0
M  V30 10599 C 998.661 2.58844 -2.15642 0
M  V30 10600 O 999.191 3.61254 -1.75665 0
M  V30 10601 N 997.397 2.27671 -1.80595 0
M  V30 10602 H 996.944 1.44429 -2.13302 0
M  V30 10603 H 996.902 2.90359 -1.20577 0
M  V30 10604 N 1000.67 1.57404 -0.0785433 0
M  V30 10605 C 1001.6 2.16131 0.883726 0
M  V30 10606 C 1002.58 1.09015 1.30575 0
M  V30 10607 O 1003.77 1.3708 1.37559 0
M  V30 10608 C 1000.9 2.72836 2.1489 0
M  V30 10609 C 999.854 3.85178 1.86605 0
M  V30 10610 C 999.18 4.28516 3.1981 0
M  V30 10611 C 1000.48 5.09118 1.16601 0
M  V30 10612 H 1002.17 2.9679 0.394484 0
M  V30 10613 H 999.72 1.42763 0.188304 0
M  V30 10614 H 1001.67 3.12567 2.8263 0
M  V30 10615 H 1000.4 1.89408 2.66068 0
M  V30 10616 H 999.056 3.45962 1.21268 0
M  V30 10617 H 998.704 3.42 3.68843 0
M  V30 10618 H 998.404 5.04249 3.01674 0
M  V30 10619 H 999.928 4.70868 3.88737 0
M  V30 10620 H 1001.34 5.46123 1.74422 0
M  V30 10621 H 999.739 5.90173 1.087 0
M  V30 10622 H 1000.81 4.8468 0.146138 0
M  V30 10623 N 1002.15 -0.195058 1.56388 0
M  V30 10624 C 1003.08 -1.24444 1.97575 0
M  V30 10625 C 1004.06 -1.47471 0.847717 0
M  V30 10626 O 1005.25 -1.59208 1.11205 0
M  V30 10627 C 1002.38 -2.58866 2.31529 0
M  V30 10628 C 1001.33 -2.50451 3.47071 0
M  V30 10629 C 1000.66 -3.89146 3.667 0
M  V30 10630 C 1001.96 -2.02953 4.81256 0
M  V30 10631 H 1003.65 -0.902178 2.85484 0
M  V30 10632 H 1001.2 -0.43254 1.3735 0
M  V30 10633 H 1003.15 -3.3246 2.58936 0
M  V30 10634 H 1001.87 -2.94833 1.40502 0
M  V30 10635 H 1000.53 -1.79313 3.19754 0
M  V30 10636 H 1000.18 -4.22466 2.73004 0
M  V30 10637 H 999.882 -3.84391 4.44429 0
M  V30 10638 H 1001.41 -4.64363 3.96484 0
M  V30 10639 H 1002.82 -2.66306 5.07695 0
M  V30 10640 H 1001.22 -2.092 5.62455 0
M  V30 10641 H 1002.29 -0.982757 4.74837 0
M  V30 10642 N 1003.63 -1.50653 -0.462772 0
M  V30 10643 C 1004.54 -1.72923 -1.58539 0
M  V30 10644 C 1005.56 -0.612577 -1.6286 0
M  V30 10645 O 1006.73 -0.891885 -1.80575 0
M  V30 10646 C 1003.8 -1.82623 -2.94703 0
M  V30 10647 C 1002.86 -3.06392 -3.00704 0
M  V30 10648 C 1002.09 -3.15618 -4.30373 0
M  V30 10649 O 1002.31 -2.31423 -5.21344 0
M  V30 10650 O 1001.25 -4.0841 -4.42136 0
M  V30 10651 H 1005.07 -2.68103 -1.42669 0
M  V30 10652 H 1002.66 -1.34848 -0.643144 0
M  V30 10653 H 1004.54 -1.91134 -3.7556 0
M  V30 10654 H 1003.22 -0.906275 -3.10754 0
M  V30 10655 H 1002.12 -3.03375 -2.18894 0
M  V30 10656 H 1003.46 -3.97992 -2.89591 0
M  V30 10657 N 1005.11 0.71652 -1.4037 0
M  V30 10658 C 1006.06 1.82219 -1.37041 0
M  V30 10659 C 1007.04 1.58975 -0.248116 0
M  V30 10660 O 1008.23 1.70164 -0.487147 0
M  V30 10661 C 1005.36 3.20337 -1.23446 0
M  V30 10662 C 1004.45 3.49347 -2.40452 0
M  V30 10663 N 1004.84 3.49179 -3.65934 0
M  V30 10664 C 1003.14 3.798 -2.33811 0
M  V30 10665 C 1003.84 3.76506 -4.43416 0
M  V30 10666 N 1002.82 3.95209 -3.73244 0
M  V30 10667 H 1006.62 1.80421 -2.32003 0
M  V30 10668 H 1004.13 0.915603 -1.34129 0
M  V30 10669 H 1006.13 3.99513 -1.19143 0
M  V30 10670 H 1004.79 3.23362 -0.294497 0
M  V30 10671 H 1005.8 3.30051 -3.99107 0
M  V30 10672 H 1002.48 3.9032 -1.48177 0
M  V30 10673 H 1003.87 3.82689 -5.52267 0
M  V30 10674 N 1006.59 1.25851 0.948643 0
M  V30 10675 C 1007.54 1.03437 2.03187 0
M  V30 10676 C 1008.52 -0.0307632 1.60871 0
M  V30 10677 O 1009.71 0.185296 1.76027 0
M  V30 10678 C 1006.84 0.661426 3.36868 0
M  V30 10679 C 1005.93 1.76363 3.8569 0
M  V30 10680 N 1006.32 2.9998 4.07241 0
M  V30 10681 C 1004.62 1.64552 4.14534 0
M  V30 10682 C 1005.32 3.71564 4.47566 0
M  V30 10683 N 1004.29 2.99214 4.53841 0
M  V30 10684 H 1008.1 1.97277 2.17851 0
M  V30 10685 H 1005.61 1.16258 1.13392 0
M  V30 10686 H 1007.61 0.482021 4.14104 0
M  V30 10687 H 1006.27 -0.269582 3.23579 0
M  V30 10688 H 1007.28 3.35963 3.94143 0
M  V30 10689 H 1003.95 0.783891 4.10075 0
M  V30 10690 H 1005.34 4.77702 4.72494 0
M  V30 10691 N 1008.06 -1.15214 1.07534 0
M  V30 10692 C 1009.03 -2.18209 0.701237 0
M  V30 10693 C 1010.03 -1.58693 -0.25946 0
M  V30 10694 O 1011.22 -1.74154 -0.0401744 0
M  V30 10695 C 1008.35 -3.40883 0.0338703 0
M  V30 10696 H 1009.54 -2.5282 1.61314 0
M  V30 10697 H 1007.1 -1.29707 0.872105 0
M  V30 10698 H 1007.83 -3.11843 -0.890187 0
M  V30 10699 H 1007.62 -3.85342 0.72486 0
M  V30 10700 H 1009.11 -4.17056 -0.213152 0
M  V30 10701 N 1009.54 -0.859717 -1.32086 0
M  V30 10702 C 1010.49 -0.296897 -2.30697 0
M  V30 10703 C 1011.48 0.582473 -1.59071 0
M  V30 10704 O 1012.69 0.469713 -1.73763 0
M  V30 10705 H 1009.07 -0.0773132 -0.748015 0
M  V30 10706 H 1011.04 -1.14273 -2.75652 0
M  V30 10707 C 1009.79 0.495546 -3.44151 0
M  V30 10708 H 1009.11 -0.171829 -3.99431 0
M  V30 10709 H 1010.55 0.854854 -4.15293 0
M  V30 10710 C 1009.01 1.68278 -2.91863 0
M  V30 10711 O 1009.54 2.78194 -2.89777 0
M  V30 10712 N 1007.74 1.51151 -2.48197 0
M  V30 10713 H 1007.29 0.617345 -2.50093 0
M  V30 10714 H 1007.25 2.3073 -2.13567 0
M  V30 10715 N 1011.02 1.44971 -0.618145 0
M  V30 10716 C 1012.27 2.02458 -0.117656 0
M  V30 10717 C 1012.6 1.48413 1.25248 0
M  V30 10718 O 1011.87 0.662997 1.82851 0
M  V30 10719 C 1012.16 3.59987 -0.0901897 0
M  V30 10720 C 1012.01 4.24343 -1.49175 0
M  V30 10721 C 1013.33 4.36099 0.592121 0
M  V30 10722 H 1010.45 0.735672 -0.0442291 0
M  V30 10723 H 1013.09 1.727 -0.792138 0
M  V30 10724 H 1011.24 3.85471 0.484175 0
M  V30 10725 H 1012.91 4.10009 -2.114 0
M  V30 10726 H 1011.16 3.82337 -2.04941 0
M  V30 10727 H 1011.83 5.33298 -1.42468 0
M  V30 10728 H 1014.3 4.1597 0.103813 0
M  V30 10729 H 1013.18 5.45822 0.580481 0
M  V30 10730 H 1013.44 4.09746 1.66015 0
M  V30 10731 N 1012.5 0.357919 1.53482 0
M  V30 10732 C 1013.45 -0.50845 2.22258 0
M  V30 10733 C 1014.43 -1.05476 1.21506 0
M  V30 10734 O 1015.62 -0.986075 1.46988 0
M  V30 10735 C 1012.75 -1.65157 3.00962 0
M  V30 10736 C 1011.84 -1.11851 4.09084 0
M  V30 10737 N 1012.23 -0.307818 5.04862 0
M  V30 10738 C 1010.53 -1.39405 4.23653 0
M  V30 10739 C 1011.23 -0.016842 5.81698 0
M  V30 10740 N 1010.21 -0.612396 5.40139 0
M  V30 10741 H 1014.01 0.117836 2.93664 0
M  V30 10742 H 1011.52 0.16553 1.61554 0
M  V30 10743 H 1013.52 -2.28435 3.48745 0
M  V30 10744 H 1012.18 -2.281 2.31086 0
M  V30 10745 H 1013.19 0.0523313 5.17874 0
M  V30 10746 H 1009.87 -2.02682 3.65002 0
M  V30 10747 H 1011.26 0.638046 6.68864 0
M  V30 10748 N 1013.98 -1.5736 0.0868897 0
M  V30 10749 C 1014.94 -2.12436 -0.860439 0
M  V30 10750 C 1015.94 -1.05175 -1.21634 0
M  V30 10751 O 1017.13 -1.31098 -1.14713 0
M  V30 10752 C 1014.26 -2.63818 -2.159 0
M  V30 10753 H 1015.45 -2.97453 -0.382346 0
M  V30 10754 H 1013.01 -1.55458 -0.162009 0
M  V30 10755 H 1013.74 -1.82298 -2.68212 0
M  V30 10756 H 1013.53 -3.42234 -1.91359 0
M  V30 10757 H 1015.02 -3.06452 -2.83685 0
M  V30 10758 N 1015.45 0.186762 -1.56489 0
M  V30 10759 C 1016.87 0.537933 -1.50261 0
M  V30 10760 C 1017.07 1.85435 -0.788414 0
M  V30 10761 O 1016.13 2.50168 -0.342377 0
M  V30 10762 C 1017.44 0.584965 -2.94955 0
M  V30 10763 C 1018.99 0.673228 -3.05674 0
M  V30 10764 C 1019.46 0.751294 -4.51796 0
M  V30 10765 N 1020.95 0.814599 -4.55981 0
M  V30 10766 C 1021.69 0.895313 -5.66367 0
M  V30 10767 N 1021.18 0.937814 -6.86423 0
M  V30 10768 N 1022.98 0.933145 -5.543 0
M  V30 10769 H 1015.13 -0.676636 -2.01334 0
M  V30 10770 H 1017.39 -0.242079 -0.916571 0
M  V30 10771 H 1017.1 -0.313361 -3.50301 0
M  V30 10772 H 1016.97 1.4368 -3.48763 0
M  V30 10773 H 1019.36 1.56198 -2.50372 0
M  V30 10774 H 1019.44 -0.204976 -2.54977 0
M  V30 10775 H 1019.08 -0.133143 -5.07725 0
M  V30 10776 H 1019.01 1.64542 -5.00233 0
M  V30 10777 H 1021.5 0.790662 -3.69536 0
M  V30 10778 H 1021.82 1.00015 -7.66301 0
M  V30 10779 H 1020.16 0.906351 -6.89065 0
M  V30 10780 H 1023.35 0.896836 -4.59428 0
M  V30 10781 H 1023.53 0.992588 -6.40353 0
M  V30 10782 N 1016.93 1.50896 0.454776 0
M  V30 10783 C 1017.88 1.71497 1.57136 0
M  V30 10784 C 1018.87 0.58098 1.59126 0
M  V30 10785 O 1020.08 0.761916 1.63079 0
M  V30 10786 H 1016.46 0.54158 0.521724 0
M  V30 10787 H 1018.43 2.65129 1.36928 0
M  V30 10788 C 1017.18 1.84125 2.94947 0
M  V30 10789 H 1016.5 2.7078 2.9414 0
M  V30 10790 H 1017.94 2.02558 3.72487 0
M  V30 10791 C 1016.4 0.596752 3.31573 0
M  V30 10792 O 1016.93 -0.256632 4.00879 0
M  V30 10793 N 1015.13 0.445958 2.87158 0
M  V30 10794 H 1014.68 1.14146 2.30929 0
M  V30 10795 H 1014.64 -0.385519 3.12027 0
M  V30 10796 N 1018.41 -0.709066 1.40748 0
M  V30 10797 C 1019.36 -1.82312 1.4153 0
M  V30 10798 C 1020.33 -1.63868 0.271392 0
M  V30 10799 O 1021.51 -1.8491 0.470431 0
M  V30 10800 C 1018.65 -3.2008 1.29006 0
M  V30 10801 C 1017.77 -3.50051 2.53156 0
M  V30 10802 C 1016.9 -4.7736 2.33025 0
M  V30 10803 C 1015.94 -5.00255 3.52719 0
M  V30 10804 N 1015.08 -6.18782 3.31743 0
M  V30 10805 H 1019.92 -1.80978 2.36751 0
M  V30 10806 H 1017.45 -0.883975 1.17577 0
M  V30 10807 H 1019.41 -3.99645 1.19749 0
M  V30 10808 H 1018.04 -3.20626 0.374014 0
M  V30 10809 H 1017.09 -2.64993 2.72916 0
M  V30 10810 H 1018.41 -3.62877 3.42231 0
M  V30 10811 H 1017.56 -5.64954 2.21159 0
M  V30 10812 H 1016.3 -4.66756 1.41386 0
M  V30 10813 H 1015.3 -4.11114 3.65055 0
M  V30 10814 H 1016.53 -5.12728 4.45295 0
M  V30 10815 H 1014.47 -6.09416 2.42791 0
M  V30 10816 H 1014.39 -6.32313 4.14386 0
M  V30 10817 H 1015.66 -7.09146 3.23623 0
M  V30 10818 N 1019.89 -1.26353 -0.941956 0
M  V30 10819 C 1021.14 -1.12017 -1.69056 0
M  V30 10820 C 1021.47 0.335856 -1.91274 0
M  V30 10821 O 1020.74 1.24677 -1.49285 0
M  V30 10822 C 1021.03 -1.88889 -3.06583 0
M  V30 10823 C 1020.88 -3.42394 -2.91696 0
M  V30 10824 C 1022.2 -1.68209 -4.06686 0
M  V30 10825 H 1019.32 -0.408311 -0.613556 0
M  V30 10826 H 1021.96 -1.55339 -1.09407 0
M  V30 10827 H 1020.11 -1.5207 -3.57501 0
M  V30 10828 H 1021.78 -3.88962 -2.48005 0
M  V30 10829 H 1020.02 -3.69459 -2.27338 0
M  V30 10830 H 1020.7 -3.91408 -3.89235 0
M  V30 10831 H 1023.17 -2.00286 -3.64726 0
M  V30 10832 H 1022.05 -2.24412 -5.00929 0
M  V30 10833 H 1022.31 -0.626474 -4.37639 0
M  V30 10834 N 1021.37 1.14642 -1.08144 0
M  V30 10835 C 1022.62 1.8525 -0.807885 0
M  V30 10836 C 1022.94 1.83194 0.668213 0
M  V30 10837 O 1022.21 1.27848 1.48431 0
M  V30 10838 H 1020.79 0.685909 -0.295868 0
M  V30 10839 H 1023.45 1.38935 -1.36686 0
M  V30 10840 H 1022.54 2.90155 -1.14964 0
M  V30 10841 N 1022.85 0.866709 1.31628 0
M  V30 10842 C 1024.09 0.486046 1.97507 0
M  V30 10843 C 1024.45 -0.95049 1.67283 0
M  V30 10844 O 1023.74 -1.65979 0.957158 0
M  V30 10845 C 1023.93 0.676018 3.50948 0
M  V30 10846 C 1023.76 2.12947 3.96086 0
M  V30 10847 C 1022.53 2.77041 4.22583 0
M  V30 10848 C 1024.73 3.10139 4.10266 0
M  V30 10849 N 1022.71 4.13172 4.54051 0
M  V30 10850 C 1024.08 4.3129 4.45409 0
M  V30 10851 C 1026.14 3.06173 3.92635 0
M  V30 10852 C 1024.84 5.4899 4.6476 0
M  V30 10853 C 1026.87 4.23128 4.13178 0
M  V30 10854 C 1026.23 5.43041 4.48649 0
M  V30 10855 H 1022.33 0.226831 0.748379 0
M  V30 10856 H 1024.91 1.12063 1.59217 0
M  V30 10857 H 1023.08 0.071055 3.88335 0
M  V30 10858 H 1024.82 0.264062 4.03838 0
M  V30 10859 H 1021.57 2.28009 4.15101 0
M  V30 10860 H 1021.99 4.83426 4.7395 0
M  V30 10861 H 1026.64 2.14576 3.64303 0
M  V30 10862 H 1024.35 6.41108 4.91942 0
M  V30 10863 H 1027.94 4.21509 4.01026 0
M  V30 10864 H 1026.82 6.32034 4.64223 0
M  V30 10865 N 1024.32 -1.44642 0.625825 0
M  V30 10866 C 1025.55 -2.06458 0.135116 0
M  V30 10867 C 1025.97 -1.46729 -1.18811 0
M  V30 10868 O 1025.32 -0.58818 -1.72762 0
M  V30 10869 C 1025.37 -3.61499 0.00850114 0
M  V30 10870 O 1025.1 -4.19002 1.2794 0
M  V30 10871 C 1026.6 -4.40339 -0.511527 0
M  V30 10872 H 1023.82 -0.666541 0.0772294 0
M  V30 10873 H 1026.36 -1.85597 0.858726 0
M  V30 10874 H 1024.52 -3.81641 -0.665522 0
M  V30 10875 H 1024.93 -5.12385 1.12081 0
M  V30 10876 H 1026.4 -5.49262 -0.549149 0
M  V30 10877 H 1026.88 -4.11409 -1.53752 0
M  V30 10878 H 1027.49 -4.25104 0.129066 0
M  V30 10879 N 1025.8 -0.366053 -1.5329 0
M  V30 10880 C 1027.21 0.113056 -1.86357 0
M  V30 10881 C 1027.56 1.48123 -1.28662 0
M  V30 10882 O 1026.69 2.07658 -0.608849 0
M  V30 10883 C 1027.28 0.211923 -3.38137 0
M  V30 10884 C 1025.84 0.635289 -3.71 0
M  V30 10885 C 1024.99 -0.217203 -2.76448 0
M  V30 10886 H 1027.94 -0.584829 -1.47531 0
M  V30 10887 H 1027.96 1.0354 -3.66142 0
M  V30 10888 H 1027.47 -0.783994 -3.80099 0
M  V30 10889 H 1025.57 1.63942 -3.34595 0
M  V30 10890 H 1025.69 0.409571 -4.77346 0
M  V30 10891 H 1024.05 0.313988 -2.52757 0
M  V30 10892 H 1024.83 -1.21067 -3.21244 0
M  V30 10893 N 1027.28 1.57312 -0.0952337 0
M  V30 10894 C 1028.24 2.12889 0.849161 0
M  V30 10895 C 1029.24 1.05819 1.21075 0
M  V30 10896 O 1030.43 1.31704 1.14016 0
M  V30 10897 C 1027.56 2.6496 2.14498 0
M  V30 10898 H 1028.76 2.97651 0.366566 0
M  V30 10899 H 1026.31 1.55542 0.153762 0
M  V30 10900 H 1027.05 1.83718 2.67242 0
M  V30 10901 H 1026.83 3.43244 1.89542 0
M  V30 10902 H 1028.32 3.07952 2.82056 0
M  V30 10903 N 1028.76 -0.17846 1.56586 0
M  V30 10904 C 1029.71 -1.22552 1.92263 0
M  V30 10905 C 1030.69 -1.40163 0.790131 0
M  V30 10906 O 1031.88 -1.42254 1.05322 0
M  V30 10907 C 1029.01 -2.5666 2.27993 0
M  V30 10908 C 1028.1 -2.42772 3.47739 0
M  V30 10909 N 1028.49 -1.98588 4.65185 0
M  V30 10910 C 1026.79 -2.73619 3.52205 0
M  V30 10911 C 1027.49 -1.96991 5.47329 0
M  V30 10912 N 1026.46 -2.39126 4.8818 0
M  V30 10913 H 1030.27 -0.875493 2.80557 0
M  V30 10914 H 1027.78 -0.386785 1.57727 0
M  V30 10915 H 1029.78 -3.32312 2.51743 0
M  V30 10916 H 1028.44 -2.92472 1.41034 0
M  V30 10917 H 1029.45 -1.69036 4.89538 0
M  V30 10918 H 1026.13 -3.13516 2.75706 0
M  V30 10919 H 1027.52 -1.64589 6.51429 0
M  V30 10920 N 1030.24 -1.51135 -0.446768 0
M  V30 10921 C 1031.17 -1.74709 -1.54916 0
M  V30 10922 C 1032.15 -0.596628 -1.59293 0
M  V30 10923 O 1033.33 -0.838356 -1.75172 0
M  V30 10924 C 1030.46 -1.86353 -2.9307 0
M  V30 10925 C 1029.42 -3.01725 -3.03556 0
M  V30 10926 C 1028.74 -2.9854 -4.43597 0
M  V30 10927 C 1030.04 -4.41848 -2.7851 0
M  V30 10928 H 1031.74 -2.67014 -1.3544 0
M  V30 10929 H 1029.28 -1.28489 -0.650131 0
M  V30 10930 H 1031.23 -2.01428 -3.70141 0
M  V30 10931 H 1029.96 -0.906887 -3.13756 0
M  V30 10932 H 1028.62 -2.86339 -2.28922 0
M  V30 10933 H 1028.27 -2.00673 -4.61237 0
M  V30 10934 H 1027.97 -3.76008 -4.51544 0
M  V30 10935 H 1029.49 -3.15696 -5.22655 0
M  V30 10936 H 1030.9 -4.57633 -3.45319 0
M  V30 10937 H 1029.3 -5.2095 -2.97877 0
M  V30 10938 H 1030.37 -4.52536 -1.74182 0
M  V30 10939 N 1031.71 0.701592 -1.41122 0
M  V30 10940 C 1032.68 1.79733 -1.42227 0
M  V30 10941 C 1033.68 1.57708 -0.313831 0
M  V30 10942 O 1034.87 1.64492 -0.573423 0
M  V30 10943 C 1032 3.18024 -1.22775 0
M  V30 10944 H 1033.19 1.80148 -2.39764 0
M  V30 10945 H 1030.74 0.908624 -1.27176 0
M  V30 10946 H 1031.48 3.23252 -0.260552 0
M  V30 10947 H 1031.26 3.35411 -2.0308 0
M  V30 10948 H 1032.75 3.98021 -1.2637 0
M  V30 10949 N 1033.19 1.2685 0.935242 0
M  V30 10950 C 1034.15 1.08975 2.01636 0
M  V30 10951 C 1035.15 0.0361543 1.60759 0
M  V30 10952 O 1036.34 0.280087 1.71934 0
M  V30 10953 C 1033.48 0.658831 3.34473 0
M  V30 10954 H 1034.67 2.04968 2.18925 0
M  V30 10955 H 1032.22 1.09531 1.11501 0
M  V30 10956 H 1032.96 -0.302824 3.22883 0
M  V30 10957 H 1032.74 1.41967 3.65497 0
M  V30 10958 H 1034.23 0.555783 4.13885 0
M  V30 10959 N 1034.67 -1.14067 1.0875 0
M  V30 10960 C 1035.6 -2.21385 0.74236 0
M  V30 10961 C 1036.58 -1.67833 -0.276805 0
M  V30 10962 O 1037.77 -1.93647 -0.1464 0
M  V30 10963 C 1034.9 -3.46956 0.154644 0
M  V30 10964 C 1033.85 -4.13555 1.10255 0
M  V30 10965 C 1033.18 -5.3337 0.376877 0
M  V30 10966 C 1034.48 -4.6169 2.44213 0
M  V30 10967 H 1036.17 -2.50512 1.63964 0
M  V30 10968 H 1033.72 -1.20408 0.789807 0
M  V30 10969 H 1035.67 -4.21284 -0.0988419 0
M  V30 10970 H 1034.39 -3.17203 -0.777789 0
M  V30 10971 H 1033.05 -3.41186 1.34119 0
M  V30 10972 H 1032.7 -4.99879 -0.559472 0
M  V30 10973 H 1032.4 -5.78875 1.00884 0
M  V30 10974 H 1033.92 -6.10458 0.131527 0
M  V30 10975 H 1035.34 -5.27475 2.24595 0
M  V30 10976 H 1033.74 -5.17909 3.03134 0
M  V30 10977 H 1034.81 -3.76574 3.05483 0
M  V30 10978 N 1036.15 -0.873678 -1.31166 0
M  V30 10979 C 1037.1 -0.330288 -2.28424 0
M  V30 10980 C 1038.07 0.573299 -1.55893 0
M  V30 10981 O 1039.25 0.504143 -1.84019 0
M  V30 10982 C 1036.39 0.459004 -3.42034 0
M  V30 10983 C 1035.5 -0.472519 -4.29408 0
M  V30 10984 C 1034.64 0.331261 -5.30166 0
M  V30 10985 C 1033.68 -0.596453 -6.09187 0
M  V30 10986 N 1032.81 0.171305 -7.01891 0
M  V30 10987 H 1037.65 -1.16485 -2.7429 0
M  V30 10988 H 1035.19 -0.585813 -1.34932 0
M  V30 10989 H 1037.15 0.932432 -4.06647 0
M  V30 10990 H 1035.78 1.25824 -2.97268 0
M  V30 10991 H 1034.83 -1.06441 -3.65205 0
M  V30 10992 H 1036.14 -1.18372 -4.84551 0
M  V30 10993 H 1035.3 0.867038 -6.00473 0
M  V30 10994 H 1034.04 1.07573 -4.75688 0
M  V30 10995 H 1033.04 -1.14395 -5.37767 0
M  V30 10996 H 1034.27 -1.33983 -6.65752 0
M  V30 10997 H 1032.21 0.89852 -6.49817 0
M  V30 10998 H 1032.13 -0.480481 -7.54472 0
M  V30 10999 H 1033.4 0.688192 -7.76456 0
M  V30 11000 N 1037.63 1.44308 -0.633487 0
M  V30 11001 C 1038.87 2.01624 -0.138643 0
M  V30 11002 C 1039.2 1.50101 1.24477 0
M  V30 11003 O 1038.47 0.705575 1.82752 0
M  V30 11004 H 1037.05 0.745439 -0.0482636 0
M  V30 11005 H 1039.71 1.76777 -0.820719 0
M  V30 11006 H 1038.8 3.11913 -0.108136 0
M  V30 11007 N 1039.1 0.374177 1.53094 0
M  V30 11008 C 1040.05 -0.48326 2.27524 0
M  V30 11009 C 1041.05 -1.07606 1.30833 0
M  V30 11010 O 1042.25 -1.01827 1.48429 0
M  V30 11011 H 1038.63 -0.174578 0.731455 0
M  V30 11012 H 1040.6 0.166156 2.97937 0
M  V30 11013 C 1039.35 -1.6065 3.08362 0
M  V30 11014 H 1038.67 -1.15966 3.82612 0
M  V30 11015 H 1040.11 -2.18099 3.63606 0
M  V30 11016 C 1038.57 -2.55381 2.19732 0
M  V30 11017 O 1039.1 -3.58414 1.8139 0
M  V30 11018 N 1037.31 -2.24769 1.84194 0
M  V30 11019 H 1036.85 -1.41018 2.15573 0
M  V30 11020 H 1036.81 -2.88404 1.25181 0
M  V30 11021 N 1040.58 -1.57259 0.103575 0
M  V30 11022 C 1041.81 -1.99 -0.566275 0
M  V30 11023 C 1042.23 -0.982909 -1.61197 0
M  V30 11024 O 1041.58 0.026345 -1.82481 0
M  V30 11025 C 1041.63 -3.40778 -1.20635 0
M  V30 11026 O 1041.35 -4.37632 -0.202472 0
M  V30 11027 C 1042.86 -3.97567 -1.961 0
M  V30 11028 H 1040.08 -0.653751 -0.151164 0
M  V30 11029 H 1042.62 -2.03658 0.185365 0
M  V30 11030 H 1040.77 -3.37107 -1.90886 0
M  V30 11031 H 1041.19 -5.2026 -0.665535 0
M  V30 11032 H 1042.66 -4.98897 -2.36233 0
M  V30 11033 H 1043.14 -3.35853 -2.83018 0
M  V30 11034 H 1043.75 -4.04737 -1.30645 0
M  V30 11035 N 1042.06 0.170153 -1.56679 0
M  V30 11036 C 1043.02 1.19443 -1.95617 0
M  V30 11037 C 1044.02 1.37118 -0.83996 0
M  V30 11038 O 1045.21 1.34504 -1.10699 0
M  V30 11039 C 1042.35 2.55926 -2.25199 0
M  V30 11040 H 1043.54 0.86095 -2.87276 0
M  V30 11041 H 1041.09 0.412646 -1.50755 0
M  V30 11042 H 1041.83 2.94286 -1.36257 0
M  V30 11043 H 1041.61 2.44464 -3.06562 0
M  V30 11044 H 1043.1 3.29742 -2.56242 0
M  V30 11045 N 1043.54 1.5137 0.438746 0
M  V30 11046 C 1044.79 1.63202 1.18524 0
M  V30 11047 C 1045.1 0.353408 1.92381 0
M  V30 11048 O 1046.31 0.351086 2.6922 0
M  V30 11049 C 1044.76 2.88218 2.15542 0
M  V30 11050 C 1044.37 4.23078 1.47339 0
M  V30 11051 C 1046.11 3.09407 2.90633 0
M  V30 11052 C 1044.02 5.39246 2.42833 0
M  V30 11053 H 1042.95 0.607864 0.446114 0
M  V30 11054 H 1045.6 1.77835 0.452421 0
M  V30 11055 H 1043.98 2.67216 2.92253 0
M  V30 11056 H 1045.16 4.54457 0.761964 0
M  V30 11057 H 1043.47 4.07755 0.844065 0
M  V30 11058 H 1046.07 3.9337 3.62165 0
M  V30 11059 H 1046.41 2.22428 3.51897 0
M  V30 11060 H 1046.95 3.30743 2.21029 0
M  V30 11061 H 1043.69 6.2848 1.8626 0
M  V30 11062 H 1043.21 5.12245 3.12034 0
M  V30 11063 H 1044.88 5.71137 3.03992 0
M  V30 11064 N 1045.02 -0.694098 1.41492 0
M  V30 11065 C 1045.95 -1.82042 1.46229 0
M  V30 11066 C 1046.93 -1.67047 0.320803 0
M  V30 11067 O 1048.11 -1.86758 0.53245 0
M  V30 11068 C 1045.24 -3.2019 1.34519 0
M  V30 11069 C 1044.2 -3.49892 2.46495 0
M  V30 11070 C 1043.52 -4.87411 2.1985 0
M  V30 11071 C 1044.82 -3.4872 3.88834 0
M  V30 11072 H 1046.52 -1.78335 2.40493 0
M  V30 11073 H 1044.06 -0.856566 1.15754 0
M  V30 11074 H 1046.02 -3.98699 1.36445 0
M  V30 11075 H 1044.74 -3.24527 0.367406 0
M  V30 11076 H 1043.4 -2.73734 2.43854 0
M  V30 11077 H 1043.05 -4.88375 1.20411 0
M  V30 11078 H 1042.75 -5.08248 2.94885 0
M  V30 11079 H 1044.27 -5.68228 2.23494 0
M  V30 11080 H 1045.68 -4.1723 3.93182 0
M  V30 11081 H 1044.08 -3.81089 4.63564 0
M  V30 11082 H 1045.15 -2.47665 4.16881 0
M  V30 11083 N 1046.49 -1.27344 -0.928501 0
M  V30 11084 C 1047.44 -1.10001 -2.029 0
M  V30 11085 C 1048.41 -0.00131084 -1.661 0
M  V30 11086 O 1049.6 -0.163485 -1.90098 0
M  V30 11087 C 1046.74 -0.7524 -3.36798 0
M  V30 11088 C 1045.85 -1.92865 -3.86558 0
M  V30 11089 C 1044.98 -1.52299 -5.08899 0
M  V30 11090 C 1044.02 -2.66677 -5.50953 0
M  V30 11091 N 1043.16 -2.26706 -6.64491 0
M  V30 11092 H 1048 -2.0417 -2.17068 0
M  V30 11093 H 1045.54 -1.01637 -1.0634 0
M  V30 11094 H 1047.5 -0.531687 -4.13798 0
M  V30 11095 H 1046.13 0.15234 -3.2244 0
M  V30 11096 H 1045.18 -2.26192 -3.05845 0
M  V30 11097 H 1046.49 -2.78668 -4.13698 0
M  V30 11098 H 1045.64 -1.26348 -5.93398 0
M  V30 11099 H 1044.38 -0.636042 -4.83535 0
M  V30 11100 H 1043.39 -2.93344 -4.65004 0
M  V30 11101 H 1044.61 -3.55992 -5.78313 0
M  V30 11102 H 1042.56 -1.40462 -6.40786 0
M  V30 11103 H 1042.48 -3.06049 -6.91281 0
M  V30 11104 H 1043.74 -2.04 -7.52333 0
M  V30 11105 N 1047.97 1.13488 -1.09353 0
M  V30 11106 C 1049.22 1.85022 -0.830354 0
M  V30 11107 C 1049.55 1.83266 0.64242 0
M  V30 11108 O 1048.83 1.27024 1.47293 0
M  V30 11109 C 1049.11 3.33218 -1.36521 0
M  V30 11110 C 1048.96 3.43491 -2.90404 0
M  V30 11111 C 1050.28 4.28626 -0.998381 0
M  V30 11112 H 1047.4 0.671786 -0.303105 0
M  V30 11113 H 1050.04 1.33211 -1.3548 0
M  V30 11114 H 1048.19 3.77471 -0.919117 0
M  V30 11115 H 1049.86 3.07954 -3.43456 0
M  V30 11116 H 1048.11 2.84391 -3.27573 0
M  V30 11117 H 1048.78 4.47702 -3.22905 0
M  V30 11118 H 1051.25 3.9244 -1.38311 0
M  V30 11119 H 1050.13 5.30754 -1.39968 0
M  V30 11120 H 1050.39 4.42001 0.093517 0
M  V30 11121 N 1049.45 0.880621 1.30701 0
M  V30 11122 C 1050.38 0.360251 2.30704 0
M  V30 11123 C 1051.36 -0.554572 1.60806 0
M  V30 11124 O 1052.55 -0.469345 1.88443 0
M  V30 11125 C 1049.68 -0.429888 3.44629 0
M  V30 11126 C 1048.63 0.392786 4.26194 0
M  V30 11127 C 1047.96 -0.52369 5.32129 0
M  V30 11128 C 1049.26 1.63258 4.96129 0
M  V30 11129 H 1050.95 1.19591 2.74478 0
M  V30 11130 H 1048.5 0.576508 1.31956 0
M  V30 11131 H 1050.45 -0.804532 4.13649 0
M  V30 11132 H 1049.17 -1.29916 2.99649 0
M  V30 11133 H 1047.83 0.749514 3.58856 0
M  V30 11134 H 1047.48 -1.39054 4.83397 0
M  V30 11135 H 1047.18 0.0229272 5.87596 0
M  V30 11136 H 1048.71 -0.894946 6.04006 0
M  V30 11137 H 1050.12 1.32877 5.57689 0
M  V30 11138 H 1048.52 2.11906 5.61441 0
M  V30 11139 H 1049.59 2.37944 4.22505 0
M  V30 11140 N 1050.93 -1.4397 0.641131 0
M  V30 11141 C 1052.18 -2.02246 0.14985 0
M  V30 11142 C 1052.51 -1.50387 -1.22871 0
M  V30 11143 O 1051.78 -0.692003 -1.81773 0
M  V30 11144 C 1052.07 -3.59798 0.147449 0
M  V30 11145 C 1051.92 -4.21916 1.55907 0
M  V30 11146 C 1053.24 -4.36985 -0.522667 0
M  V30 11147 H 1050.36 -0.734875 0.0559274 0
M  V30 11148 H 1053 -1.71418 0.819513 0
M  V30 11149 H 1051.15 -3.86193 -0.422789 0
M  V30 11150 H 1052.82 -4.06594 2.17896 0
M  V30 11151 H 1051.06 -3.79028 2.10998 0
M  V30 11152 H 1051.74 -5.30964 1.50934 0
M  V30 11153 H 1054.21 -4.16083 -0.0376226 0
M  V30 11154 H 1053.09 -5.46676 -0.493572 0
M  V30 11155 H 1053.35 -4.12335 -1.59475 0
M  V30 11156 N 1052.41 -0.382291 -1.52893 0
M  V30 11157 C 1053.32 0.463745 -2.29971 0
M  V30 11158 C 1054.33 1.07777 -1.36602 0
M  V30 11159 O 1055.51 1.0851 -1.69669 0
M  V30 11160 C 1052.57 1.57938 -3.08637 0
M  V30 11161 C 1051.64 0.991182 -4.17701 0
M  V30 11162 C 1050.87 2.05365 -4.92606 0
M  V30 11163 O 1051.09 3.26757 -4.67532 0
M  V30 11164 O 1050.03 1.67487 -5.78128 0
M  V30 11165 H 1053.85 -0.163962 -3.03257 0
M  V30 11166 H 1051.44 -0.146199 -1.48683 0
M  V30 11167 H 1053.32 2.22765 -3.57706 0
M  V30 11168 H 1051.99 2.19218 -2.3817 0
M  V30 11169 H 1050.9 0.306364 -3.72843 0
M  V30 11170 H 1052.23 0.422699 -4.90382 0
M  V30 11171 N 1053.89 1.57202 -0.111913 0
M  V30 11172 C 1054.85 2.13778 0.826534 0
M  V30 11173 C 1055.85 1.07097 1.19945 0
M  V30 11174 O 1057.04 1.32906 1.12613 0
M  V30 11175 C 1054.17 2.6722 2.11675 0
M  V30 11176 H 1055.36 2.98023 0.334975 0
M  V30 11177 H 1052.92 1.55696 0.137256 0
M  V30 11178 H 1053.65 1.86542 2.65278 0
M  V30 11179 H 1053.44 3.45235 1.8589 0
M  V30 11180 H 1054.93 3.10926 2.78774 0
M  V30 11181 N 1055.36 -0.161842 1.56767 0
M  V30 11182 C 1056.61 -0.875192 1.82167 0
M  V30 11183 C 1056.93 -1.82367 0.690444 0
M  V30 11184 O 1056.2 -1.93756 -0.289023 0
M  V30 11185 H 1054.78 -0.326178 0.672024 0
M  V30 11186 H 1057.44 -0.159392 1.94247 0
M  V30 11187 H 1056.54 -1.44639 2.76561 0
M  V30 11188 N 1056.84 -1.516 -0.430713 0
M  V30 11189 C 1057.8 -1.72794 -1.50582 0
M  V30 11190 C 1058.8 -0.597903 -1.49271 0
M  V30 11191 O 1059.99 -0.865535 -1.51176 0
M  V30 11192 C 1057.13 -1.79049 -2.90093 0
M  V30 11193 H 1058.32 -2.68751 -1.33091 0
M  V30 11194 H 1055.87 -1.4169 -0.659822 0
M  V30 11195 H 1056.61 -0.849309 -3.12981 0
M  V30 11196 H 1056.39 -2.61181 -2.92449 0
M  V30 11197 H 1057.88 -1.97262 -3.68072 0
M  V30 11198 N 1058.32 0.686584 -1.41858 0
M  V30 11199 C 1059.25 1.81202 -1.40352 0
M  V30 11200 C 1060.26 1.5993 -0.304322 0
M  V30 11201 O 1061.45 1.69267 -0.566643 0
M  V30 11202 C 1058.55 3.18116 -1.16856 0
M  V30 11203 C 1057.73 3.66339 -2.38987 0
M  V30 11204 C 1056.79 4.8195 -2.11212 0
M  V30 11205 O 1055.81 4.93102 -2.84323 0
M  V30 11206 N 1057.01 5.69829 -1.10793 0
M  V30 11207 H 1059.78 1.82983 -2.37355 0
M  V30 11208 H 1057.34 0.869244 -1.36586 0
M  V30 11209 H 1059.33 3.93097 -0.962125 0
M  V30 11210 H 1057.9 3.11306 -0.284186 0
M  V30 11211 H 1057.12 2.82166 -2.75274 0
M  V30 11212 H 1058.41 3.95297 -3.2034 0
M  V30 11213 H 1057.81 5.63459 -0.503012 0
M  V30 11214 H 1056.36 6.44671 -0.961379 0
M  V30 11215 N 1059.8 1.27835 0.921735 0
M  V30 11216 C 1060.73 1.136 2.04003 0
M  V30 11217 C 1061.71 0.0358756 1.70062 0
M  V30 11218 O 1062.89 0.211438 1.93046 0
M  V30 11219 C 1060.02 0.788697 3.38226 0
M  V30 11220 C 1058.98 1.84272 3.863 0
M  V30 11221 C 1058.3 1.34923 5.17397 0
M  V30 11222 C 1059.6 3.24788 4.09035 0
M  V30 11223 H 1061.3 2.07149 2.1617 0
M  V30 11224 H 1058.84 0.997349 1.0387 0
M  V30 11225 H 1060.8 0.675911 4.15944 0
M  V30 11226 H 1059.52 -0.182499 3.2609 0
M  V30 11227 H 1058.18 1.94451 3.1078 0
M  V30 11228 H 1057.83 0.367328 5.01657 0
M  V30 11229 H 1057.53 2.05397 5.50532 0
M  V30 11230 H 1059.05 1.24951 5.97678 0
M  V30 11231 H 1060.47 3.17575 4.77304 0
M  V30 11232 H 1058.86 3.93025 4.53488 0
M  V30 11233 H 1059.93 3.69398 3.14122 0
M  V30 11234 N 1061.28 -1.12907 1.09954 0
M  V30 11235 C 1062.55 -1.80602 0.751148 0
M  V30 11236 C 1062.93 -1.96826 -0.763077 0
M  V30 11237 O 1062.28 -1.54066 -1.68749 0
M  V30 11238 C 1062.49 -3.15289 1.49646 0
M  V30 11239 C 1063.84 -3.9056 1.66578 0
M  V30 11240 O 1064.86 -3.24929 1.45943 0
M  V30 11241 O 1063.72 -5.08292 2.00752 0
M  V30 11242 H 1060.82 -0.781529 0.270446 0
M  V30 11243 H 1063.36 -1.19786 1.20206 0
M  V30 11244 H 1062.13 -2.9874 2.52725 0
M  V30 11245 H 1061.76 -3.83809 1.03808 0
M  V30 11246 N 1062.75 -0.88754 -1.30232 0
M  V30 11247 C 1064 -0.508031 -1.96334 0
M  V30 11248 C 1064.33 0.940905 -1.69884 0
M  V30 11249 O 1063.61 1.66523 -1.005 0
M  V30 11250 C 1063.89 -0.786566 -3.51405 0
M  V30 11251 C 1063.74 -2.28632 -3.8736 0
M  V30 11252 C 1065.06 -0.264803 -4.39303 0
M  V30 11253 H 1062.18 -0.186051 -0.71313 0
M  V30 11254 H 1064.82 -1.112 -1.5406 0
M  V30 11255 H 1062.97 -0.272523 -3.87543 0
M  V30 11256 H 1064.65 -2.86896 -3.61231 0
M  V30 11257 H 1062.89 -2.75194 -3.35337 0
M  V30 11258 H 1063.56 -2.43181 -4.95547 0
M  V30 11259 H 1066.04 -0.704809 -4.10087 0
M  V30 11260 H 1064.91 -0.488998 -5.46717 0
M  V30 11261 H 1065.17 0.834055 -4.34161 0
M  V30 11262 N 1064.23 1.43628 -0.648757 0
M  V30 11263 C 1065.16 2.29045 0.0841858 0
M  V30 11264 C 1066.18 1.42262 0.791537 0
M  V30 11265 O 1067.37 1.66243 0.650039 0
M  V30 11266 C 1064.47 3.19075 1.14212 0
M  V30 11267 C 1063.64 4.34372 0.513799 0
M  V30 11268 C 1062.7 5.05307 1.46803 0
M  V30 11269 O 1061.72 5.60729 0.978346 0
M  V30 11270 N 1062.93 5.08393 2.80209 0
M  V30 11271 H 1065.69 2.9259 -0.648948 0
M  V30 11272 H 1063.25 1.54268 -0.491209 0
M  V30 11273 H 1065.24 3.63395 1.78119 0
M  V30 11274 H 1063.81 2.57161 1.77728 0
M  V30 11275 H 1063.03 3.93024 -0.304262 0
M  V30 11276 H 1064.32 5.08745 0.0749871 0
M  V30 11277 H 1063.72 4.64729 3.22557 0
M  V30 11278 H 1062.28 5.56445 3.3943 0
M  V30 11279 N 1065.71 0.390394 1.52688 0
M  V30 11280 C 1066.99 -0.249068 1.94008 0
M  V30 11281 C 1067.37 -1.64263 1.32593 0
M  V30 11282 O 1066.72 -2.23086 0.494448 0
M  V30 11283 C 1066.93 -0.274318 3.4792 0
M  V30 11284 C 1068.27 -0.502743 4.21613 0
M  V30 11285 O 1069.3 -0.35448 3.54432 0
M  V30 11286 O 1068.16 -0.79334 5.40711 0
M  V30 11287 H 1065.25 -0.155116 0.812323 0
M  V30 11288 H 1067.8 0.44498 1.63762 0
M  V30 11289 H 1066.57 0.701766 3.84956 0
M  V30 11290 H 1066.19 -1.01324 3.84473 0
M  V30 11291 N 1067.19 -1.57141 0.120249 0
M  V30 11292 C 1068.44 -1.94852 -0.536387 0
M  V30 11293 C 1068.76 -1.00452 -1.67136 0
M  V30 11294 O 1068.03 -0.061053 -1.95805 0
M  V30 11295 H 1066.61 -0.719411 -0.201138 0
M  V30 11296 H 1069.27 -1.93977 0.189482 0
M  V30 11297 H 1068.37 -2.97917 -0.930145 0
M  V30 11298 N 1068.67 0.153526 -1.5685 0
M  V30 11299 C 1069.91 0.868517 -1.83261 0
M  V30 11300 C 1070.25 1.81112 -0.700857 0
M  V30 11301 O 1069.52 1.92235 0.295989 0
M  V30 11302 C 1069.8 1.6487 -3.2014 0
M  V30 11303 C 1069.66 0.728021 -4.43869 0
M  V30 11304 C 1070.98 2.61259 -3.54163 0
M  V30 11305 H 1068.09 0.314297 -0.666623 0
M  V30 11306 H 1070.74 0.133971 -1.89527 0
M  V30 11307 H 1068.89 2.2749 -3.1493 0
M  V30 11308 H 1070.56 0.113328 -4.61161 0
M  V30 11309 H 1068.8 0.0371744 -4.33784 0
M  V30 11310 H 1069.47 1.30981 -5.36235 0
M  V30 11311 H 1071.95 2.0876 -3.59942 0
M  V30 11312 H 1070.82 3.12902 -4.50981 0
M  V30 11313 H 1071.09 3.42307 -2.79782 0
M  V30 11314 N 1070.14 1.51827 0.422667 0
M  V30 11315 C 1071.37 1.69337 1.19748 0
M  V30 11316 C 1071.79 0.396312 1.83878 0
M  V30 11317 O 1071.15 -0.644976 1.6944 0
M  V30 11318 C 1071.2 2.82082 2.24637 0
M  V30 11319 O 1070.3 2.46708 3.30468 0
M  V30 11320 H 1069.65 0.564154 0.35018 0
M  V30 11321 H 1072.18 1.98465 0.497289 0
M  V30 11322 H 1072.19 3.06599 2.69186 0
M  V30 11323 H 1070.86 3.76195 1.77341 0
M  V30 11324 H 1069.44 2.32815 2.91293 0
M  V30 11325 N 1071.62 -0.679052 1.4222 0
M  V30 11326 C 1072.86 -1.45118 1.43945 0
M  V30 11327 C 1073.23 -1.91928 0.0524851 0
M  V30 11328 O 1074.43 -2.68743 -0.0555318 0
M  V30 11329 C 1072.7 -2.6191 2.43183 0
M  V30 11330 S 1074.26 -3.50819 2.63574 0
M  V30 11331 H 1071.08 -0.495695 0.509713 0
M  V30 11332 H 1073.68 -0.790842 1.7879 0
M  V30 11333 H 1072.38 -2.25752 3.42731 0
M  V30 11334 H 1071.91 -3.3282 2.09748 0
M  V30 11335 H 1073.93 -4.57735 1.91555 0
M  V30 11336 N 1073.1 -1.28322 -0.914942 0
M  V30 11337 C 1074.33 -1.18254 -1.69775 0
M  V30 11338 C 1074.74 0.258978 -1.87015 0
M  V30 11339 O 1074.1 1.17514 -1.3963 0
M  V30 11340 C 1074.15 -1.8753 -3.09054 0
M  V30 11341 O 1073.87 -3.26051 -2.92613 0
M  V30 11342 C 1075.37 -1.83749 -4.03424 0
M  V30 11343 H 1072.59 -0.41055 -0.530744 0
M  V30 11344 H 1075.14 -1.69425 -1.14523 0
M  V30 11345 H 1073.29 -1.40233 -3.61128 0
M  V30 11346 H 1073.71 -3.60729 -3.80756 0
M  V30 11347 H 1075.18 -2.36813 -4.98622 0
M  V30 11348 H 1075.66 -0.809601 -4.31674 0
M  V30 11349 H 1076.26 -2.3072 -3.57279 0
M  V30 11350 N 1074.58 1.12322 -1.10551 0
M  V30 11351 C 1075.99 1.6539 -0.8662 0
M  V30 11352 C 1076.34 1.86695 0.603284 0
M  V30 11353 O 1075.47 1.59432 1.46323 0
M  V30 11354 C 1076.06 3.00443 -1.56587 0
M  V30 11355 C 1074.62 3.50456 -1.37323 0
M  V30 11356 C 1073.77 2.25454 -1.61449 0
M  V30 11357 H 1076.72 0.960866 -1.26305 0
M  V30 11358 H 1076.74 3.66972 -1.00557 0
M  V30 11359 H 1076.25 2.84905 -2.63535 0
M  V30 11360 H 1074.35 3.71176 -0.325431 0
M  V30 11361 H 1074.46 4.29839 -2.11601 0
M  V30 11362 H 1072.83 2.32621 -1.03729 0
M  V30 11363 H 1073.61 2.12469 -2.69651 0
M  V30 11364 N 1076.06 0.894434 1.2976 0
M  V30 11365 C 1076.99 0.3847 2.30309 0
M  V30 11366 C 1077.97 -0.537486 1.61385 0
M  V30 11367 O 1079.15 -0.449332 1.8893 0
M  V30 11368 C 1076.28 -0.393311 3.45066 0
M  V30 11369 C 1075.24 0.437968 4.25753 0
M  V30 11370 C 1074.56 -0.467221 5.32655 0
M  V30 11371 C 1075.86 1.6851 4.9437 0
M  V30 11372 H 1077.56 1.22496 2.73194 0
M  V30 11373 H 1075.1 0.590471 1.31337 0
M  V30 11374 H 1077.06 -0.760614 4.14479 0
M  V30 11375 H 1075.78 -1.2673 3.0101 0
M  V30 11376 H 1074.44 0.787533 3.58041 0
M  V30 11377 H 1074.09 -1.33919 4.84845 0
M  V30 11378 H 1073.79 0.0852482 5.87538 0
M  V30 11379 H 1075.31 -0.830833 6.04921 0
M  V30 11380 H 1076.72 1.38784 5.56248 0
M  V30 11381 H 1075.12 2.17849 5.59162 0
M  V30 11382 H 1076.19 2.42412 4.19958 0
M  V30 11383 N 1077.53 -1.43282 0.656365 0
M  V30 11384 C 1078.47 -2.29087 -0.0720378 0
M  V30 11385 C 1079.48 -1.4268 -0.783982 0
M  V30 11386 O 1080.67 -1.66585 -0.641213 0
M  V30 11387 C 1077.77 -3.19676 -1.12519 0
M  V30 11388 C 1076.94 -4.34638 -0.490756 0
M  V30 11389 C 1076 -5.06079 -1.44121 0
M  V30 11390 O 1075.03 -5.6124 -0.948595 0
M  V30 11391 N 1076.23 -5.09872 -2.77509 0
M  V30 11392 H 1078.99 -2.92241 0.664456 0
M  V30 11393 H 1076.55 -1.54006 0.499383 0
M  V30 11394 H 1078.55 -3.64334 -1.76189 0
M  V30 11395 H 1077.12 -2.581 -1.76362 0
M  V30 11396 H 1076.34 -3.92857 0.3251 0
M  V30 11397 H 1077.62 -5.08777 -0.0480061 0
M  V30 11398 H 1077.02 -4.66433 -3.20088 0
M  V30 11399 H 1075.58 -5.58237 -3.36474 0
M  V30 11400 N 1079.01 -0.398486 -1.52479 0
M  V30 11401 C 1079.94 0.423498 -2.29627 0
M  V30 11402 C 1080.92 1.05547 -1.33394 0
M  V30 11403 O 1082.11 1.0665 -1.62294 0
M  V30 11404 C 1079.24 1.54612 -3.10986 0
M  V30 11405 C 1078.19 1.03971 -4.15179 0
M  V30 11406 C 1077.52 2.25512 -4.84818 0
M  V30 11407 C 1078.82 0.10121 -5.22202 0
M  V30 11408 H 1080.51 -0.220222 -2.98589 0
M  V30 11409 H 1078.06 -0.107355 -1.43599 0
M  V30 11410 H 1080.01 2.12806 -3.63719 0
M  V30 11411 H 1078.74 2.21756 -2.39774 0
M  V30 11412 H 1077.4 0.480251 -3.63441 0
M  V30 11413 H 1077.04 2.91187 -4.10145 0
M  V30 11414 H 1076.74 1.92285 -5.55248 0
M  V30 11415 H 1078.27 2.84331 -5.40359 0
M  V30 11416 H 1079.68 0.591617 -5.70239 0
M  V30 11417 H 1078.08 -0.141737 -5.99933 0
M  V30 11418 H 1079.15 -0.847216 -4.77441 0
M  V30 11419 N 1080.49 1.57075 -0.12858 0
M  V30 11420 C 1081.45 2.14643 0.803813 0
M  V30 11421 C 1082.45 1.08363 1.18803 0
M  V30 11422 O 1083.64 1.34093 1.11197 0
M  V30 11423 C 1080.78 2.6945 2.08829 0
M  V30 11424 H 1081.97 2.98362 0.303347 0
M  V30 11425 H 1079.52 1.55833 0.120735 0
M  V30 11426 H 1080.26 1.89345 2.63285 0
M  V30 11427 H 1080.04 3.47187 1.82218 0
M  V30 11428 H 1081.53 3.13865 2.7546 0
M  V30 11429 N 1081.97 -0.145205 1.5693 0
M  V30 11430 C 1082.9 -1.18096 2.01434 0
M  V30 11431 C 1083.88 -1.447 0.894204 0
M  V30 11432 O 1085.07 -1.55589 1.16214 0
M  V30 11433 C 1082.2 -2.51369 2.39647 0
M  V30 11434 C 1081.15 -2.39283 3.54863 0
M  V30 11435 C 1080.48 -3.77283 3.78895 0
M  V30 11436 C 1081.78 -1.8754 4.87469 0
M  V30 11437 H 1083.47 -0.810897 2.8821 0
M  V30 11438 H 1081.02 -0.388624 1.38657 0
M  V30 11439 H 1082.97 -3.24054 2.69382 0
M  V30 11440 H 1081.69 -2.90214 1.49811 0
M  V30 11441 H 1080.35 -1.6905 3.25296 0
M  V30 11442 H 1080 -4.13567 2.86307 0
M  V30 11443 H 1079.7 -3.70057 4.56433 0
M  V30 11444 H 1081.22 -4.51514 4.11057 0
M  V30 11445 H 1082.64 -2.50019 5.1591 0
M  V30 11446 H 1081.03 -1.912 5.68826 0
M  V30 11447 H 1082.1 -0.831194 4.77723 0
M  V30 11448 N 1083.45 -1.52049 -0.414609 0
M  V30 11449 C 1084.86 -1.40729 -0.752822 0
M  V30 11450 C 1085.06 -0.507468 -1.95005 0
M  V30 11451 O 1084.12 0.0288189 -2.52484 0
M  V30 11452 C 1085.43 -2.83163 -1.01189 0
M  V30 11453 C 1086.98 -2.92469 -1.11494 0
M  V30 11454 C 1087.46 -4.35859 -1.4068 0
M  V30 11455 N 1088.95 -4.39069 -1.47557 0
M  V30 11456 C 1089.68 -5.47072 -1.71756 0
M  V30 11457 N 1089.18 -6.65201 -1.93595 0
M  V30 11458 N 1090.97 -5.3458 -1.73726 0
M  V30 11459 H 1083.12 -2.09089 0.373549 0
M  V30 11460 H 1085.38 -0.942188 0.104814 0
M  V30 11461 H 1085.09 -3.51104 -0.204609 0
M  V30 11462 H 1084.96 -3.23874 -1.93353 0
M  V30 11463 H 1087.35 -2.24711 -1.91282 0
M  V30 11464 H 1087.43 -2.55222 -0.171794 0
M  V30 11465 H 1087.08 -5.04174 -0.614119 0
M  V30 11466 H 1087.01 -4.70637 -2.36238 0
M  V30 11467 H 1089.5 -3.53913 -1.32491 0
M  V30 11468 H 1089.81 -7.43297 -2.11495 0
M  V30 11469 H 1088.16 -6.68276 -1.90871 0
M  V30 11470 H 1091.35 -4.41271 -1.56198 0
M  V30 11471 H 1091.52 -6.18826 -1.92246 0
M  V30 11472 N 1084.93 0.6715 -1.42579 0
M  V30 11473 C 1086.15 1.46471 -1.46836 0
M  V30 11474 C 1086.58 1.87921 -0.0820658 0
M  V30 11475 O 1085.93 1.5621 0.920217 0
M  V30 11476 C 1085.98 2.68796 -2.40377 0
M  V30 11477 O 1085.09 3.67188 -1.87741 0
M  V30 11478 H 1084.43 0.439901 -0.497376 0
M  V30 11479 H 1086.96 0.823342 -1.87303 0
M  V30 11480 H 1086.97 3.16828 -2.57068 0
M  V30 11481 H 1085.64 2.37967 -3.41093 0
M  V30 11482 H 1084.22 3.26237 -1.80621 0
M  V30 11483 N 1086.4 1.28806 0.908124 0
M  V30 11484 C 1087.82 1.06634 1.18749 0
M  V30 11485 C 1088.02 -0.187729 2.00624 0
M  V30 11486 O 1087.08 -0.88784 2.36376 0
M  V30 11487 C 1088.39 2.31703 1.91661 0
M  V30 11488 C 1089.94 2.36939 2.04521 0
M  V30 11489 C 1090.41 3.61789 2.80843 0
M  V30 11490 N 1091.9 3.62462 2.88402 0
M  V30 11491 C 1092.64 4.55746 3.47971 0
M  V30 11492 N 1092.13 5.59353 4.08774 0
M  V30 11493 N 1093.93 4.43331 3.45564 0
M  V30 11494 H 1086.08 2.09299 0.36164 0
M  V30 11495 H 1088.34 0.921479 0.222668 0
M  V30 11496 H 1088.05 3.23096 1.38931 0
M  V30 11497 H 1087.92 2.38556 2.92183 0
M  V30 11498 H 1090.31 1.4604 2.5643 0
M  V30 11499 H 1090.39 2.34077 1.03159 0
M  V30 11500 H 1090.03 4.53035 2.29612 0
M  V30 11501 H 1089.96 3.61907 3.82532 0
M  V30 11502 H 1092.45 2.87544 2.45208 0
M  V30 11503 H 1092.77 6.26668 4.52224 0
M  V30 11504 H 1091.11 5.63173 4.07261 0
M  V30 11505 H 1094.3 3.61587 2.97276 0
M  V30 11506 H 1094.48 5.16216 3.91695 0
M  V30 11507 N 1087.88 -1.11734 1.11145 0
M  V30 11508 C 1088.83 -2.17683 0.766979 0
M  V30 11509 C 1089.8 -1.64051 -0.260108 0
M  V30 11510 O 1090.98 -1.90302 -0.137723 0
M  V30 11511 C 1088.12 -3.44442 0.212982 0
M  V30 11512 C 1087.24 -4.12094 1.29626 0
M  V30 11513 C 1086.37 -5.26526 0.703127 0
M  V30 11514 C 1085.41 -5.86057 1.76647 0
M  V30 11515 N 1084.55 -6.91889 1.19306 0
M  V30 11516 H 1089.39 -2.46495 1.67465 0
M  V30 11517 H 1086.92 -1.21011 0.836353 0
M  V30 11518 H 1088.88 -4.17009 -0.126162 0
M  V30 11519 H 1087.51 -3.16025 -0.657888 0
M  V30 11520 H 1086.56 -3.37631 1.75241 0
M  V30 11521 H 1087.88 -4.52398 2.10089 0
M  V30 11522 H 1087.03 -6.05888 0.313859 0
M  V30 11523 H 1085.77 -4.87519 -0.132856 0
M  V30 11524 H 1084.77 -5.05375 2.16508 0
M  V30 11525 H 1086 -6.27132 2.60543 0
M  V30 11526 H 1083.95 -6.54906 0.378664 0
M  V30 11527 H 1083.86 -7.30832 1.93443 0
M  V30 11528 H 1085.13 -7.75062 0.830578 0
M  V30 11529 N 1089.36 -0.901303 -1.29284 0
M  V30 11530 C 1090.29 -0.337552 -2.26701 0
M  V30 11531 C 1091.3 0.517039 -1.54371 0
M  V30 11532 O 1092.49 0.333937 -1.75349 0
M  V30 11533 C 1089.59 0.537214 -3.34615 0
M  V30 11534 C 1088.77 -0.292017 -4.36424 0
M  V30 11535 C 1087.83 0.515837 -5.23666 0
M  V30 11536 O 1086.85 -0.0672303 -5.6916 0
M  V30 11537 N 1088.05 1.82159 -5.51179 0
M  V30 11538 H 1090.82 -1.17484 -2.75713 0
M  V30 11539 H 1088.38 -0.765957 -1.42635 0
M  V30 11540 H 1090.37 1.0841 -3.8991 0
M  V30 11541 H 1088.94 1.2752 -2.85408 0
M  V30 11542 H 1088.16 -1.02031 -3.80767 0
M  V30 11543 H 1089.45 -0.859855 -5.01482 0
M  V30 11544 H 1088.85 2.318 -5.16028 0
M  V30 11545 H 1087.4 2.31556 -6.09282 0
M  V30 11546 N 1090.84 1.42931 -0.663954 0
M  V30 11547 C 1092.09 2.01284 -0.181379 0
M  V30 11548 C 1092.41 1.52708 1.21265 0
M  V30 11549 O 1091.68 0.744181 1.81215 0
M  V30 11550 H 1090.26 0.744248 -0.0640646 0
M  V30 11551 H 1092.92 1.74997 -0.858031 0
M  V30 11552 H 1092.01 3.11613 -0.174273 0
M  V30 11553 N 1092.32 0.406567 1.52266 0
M  V30 11554 C 1093.56 -0.171391 2.00971 0
M  V30 11555 C 1093.88 -1.46443 1.29668 0
M  V30 11556 O 1095.08 -2.12348 1.69176 0
M  V30 11557 C 1093.54 -0.35599 3.58135 0
M  V30 11558 C 1093.15 0.924803 4.38351 0
M  V30 11559 C 1094.89 -0.889378 4.15079 0
M  V30 11560 C 1092.8 0.707534 5.87152 0
M  V30 11561 H 1091.73 -0.0678253 0.750943 0
M  V30 11562 H 1094.38 0.531619 1.7563 0
M  V30 11563 H 1092.76 -1.12127 3.79794 0
M  V30 11564 H 1093.94 1.69603 4.28452 0
M  V30 11565 H 1092.25 1.38442 3.92712 0
M  V30 11566 H 1094.85 -1.06792 5.23927 0
M  V30 11567 H 1095.19 -1.86334 3.7227 0
M  V30 11568 H 1095.72 -0.183224 3.97378 0
M  V30 11569 H 1092.46 1.65299 6.34316 0
M  V30 11570 H 1091.98 -0.024446 5.99795 0
M  V30 11571 H 1093.66 0.348721 6.4606 0
M  V30 11572 N 1093.79 -1.57004 0.136909 0
M  V30 11573 C 1094.73 -2.12004 -0.844362 0
M  V30 11574 C 1095.71 -1.04099 -1.24909 0
M  V30 11575 O 1096.89 -1.31866 -1.34698 0
M  V30 11576 C 1094.02 -2.63147 -2.13241 0
M  V30 11577 C 1093.06 -3.83105 -1.87438 0
M  V30 11578 S 1093.9 -5.2461 -1.07447 0
M  V30 11579 C 1095.05 -5.79134 -2.37392 0
M  V30 11580 H 1095.28 -2.94905 -0.376614 0
M  V30 11581 H 1092.82 -1.54207 -0.0771977 0
M  V30 11582 H 1094.78 -2.93264 -2.87239 0
M  V30 11583 H 1093.44 -1.80395 -2.57131 0
M  V30 11584 H 1092.63 -4.17099 -2.82922 0
M  V30 11585 H 1092.23 -3.53696 -1.21553 0
M  V30 11586 H 1094.52 -5.8995 -3.33114 0
M  V30 11587 H 1095.47 -6.76887 -2.07918 0
M  V30 11588 H 1095.87 -5.07311 -2.47579 0
M  V30 11589 N 1095.27 0.136881 -1.57004 0
M  V30 11590 C 1096.5 0.866405 -1.88436 0
M  V30 11591 C 1096.92 1.73483 -0.727006 0
M  V30 11592 O 1096.28 1.78398 0.323094 0
M  V30 11593 C 1096.33 1.69059 -3.18514 0
M  V30 11594 O 1095.43 2.79584 -3.03161 0
M  V30 11595 H 1094.77 0.240709 -0.618834 0
M  V30 11596 H 1097.3 0.124653 -2.0422 0
M  V30 11597 H 1097.31 2.08353 -3.50789 0
M  V30 11598 H 1095.99 1.05296 -4.0235 0
M  V30 11599 H 1094.57 2.43623 -2.82315 0
M  V30 11600 N 1096.75 1.52266 0.40654 0
M  V30 11601 C 1098 1.66452 1.15325 0
M  V30 11602 C 1098.33 0.395728 1.90432 0
M  V30 11603 O 1097.58 -0.621382 1.85573 0
M  V30 11604 C 1097.88 2.8389 2.1712 0
M  V30 11605 C 1097.55 4.22011 1.58801 0
M  V30 11606 C 1096.21 4.59579 1.42621 0
M  V30 11607 C 1098.56 5.08074 1.16236 0
M  V30 11608 C 1095.89 5.80885 0.823967 0
M  V30 11609 C 1098.24 6.29988 0.574284 0
M  V30 11610 C 1096.9 6.66303 0.399638 0
M  V30 11611 H 1096.17 0.609092 0.422005 0
M  V30 11612 H 1098.82 1.86374 0.440131 0
M  V30 11613 H 1097.13 2.58314 2.94586 0
M  V30 11614 H 1098.82 2.92063 2.74774 0
M  V30 11615 H 1095.41 3.92408 1.72378 0
M  V30 11616 H 1099.6 4.79631 1.27544 0
M  V30 11617 H 1094.85 6.07644 0.676694 0
M  V30 11618 H 1099.03 6.96 0.236081 0
M  V30 11619 H 1096.65 7.60169 -0.0691262 0
M  V30 11620 N 1098.23 -0.663929 1.42933 0
M  V30 11621 C 1099.16 -1.78899 1.50058 0
M  V30 11622 C 1100.14 -1.66329 0.356164 0
M  V30 11623 O 1101.32 -1.85587 0.571944 0
M  V30 11624 C 1098.45 -3.17265 1.41281 0
M  V30 11625 C 1097.41 -3.44584 2.53861 0
M  V30 11626 C 1096.73 -4.82638 2.3014 0
M  V30 11627 C 1098.03 -3.40394 3.96143 0
M  V30 11628 H 1099.73 -1.73194 2.44222 0
M  V30 11629 H 1097.27 -0.83182 1.17545 0
M  V30 11630 H 1099.23 -3.95715 1.44872 0
M  V30 11631 H 1097.95 -3.23675 0.43616 0
M  V30 11632 H 1096.61 -2.685 2.49606 0
M  V30 11633 H 1096.26 -4.85711 1.30743 0
M  V30 11634 H 1095.96 -5.01879 3.056 0
M  V30 11635 H 1097.48 -5.63359 2.35497 0
M  V30 11636 H 1098.9 -4.08796 4.01943 0
M  V30 11637 H 1097.29 -3.7117 4.71543 0
M  V30 11638 H 1098.36 -2.38767 4.22041 0
M  V30 11639 N 1099.71 -1.29285 -0.901281 0
M  V30 11640 C 1100.62 -1.16161 -2.03823 0
M  V30 11641 C 1101.63 -0.0852298 -1.73791 0
M  V30 11642 O 1102.81 -0.29699 -1.99198 0
M  V30 11643 C 1099.87 -0.837586 -3.3643 0
M  V30 11644 C 1098.93 -1.99764 -3.7999 0
M  V30 11645 C 1098.17 -1.68898 -5.0627 0
M  V30 11646 O 1098.39 -0.609177 -5.67138 0
M  V30 11647 O 1097.32 -2.53648 -5.45845 0
M  V30 11648 H 1101.15 -2.11635 -2.17817 0
M  V30 11649 H 1098.74 -1.08722 -1.02468 0
M  V30 11650 H 1100.62 -0.671376 -4.16017 0
M  V30 11651 H 1099.29 0.0873811 -3.23582 0
M  V30 11652 H 1098.2 -2.21908 -3.01177 0
M  V30 11653 H 1099.53 -2.90376 -3.9742 0
M  V30 11654 N 1101.18 1.11143 -1.11736 0
M  V30 11655 C 1102.43 1.82586 -0.866412 0
M  V30 11656 C 1102.75 1.85227 0.609593 0
M  V30 11657 O 1102.02 1.32505 1.44288 0
M  V30 11658 H 1100.6 0.676149 -0.31754 0
M  V30 11659 H 1103.27 1.34516 -1.41037 0
M  V30 11660 H 1102.36 2.8635 -1.24136 0
M  V30 11661 N 1102.66 0.908147 1.28804 0
M  V30 11662 C 1103.61 0.390734 2.27468 0
M  V30 11663 C 1104.58 -0.531765 1.57358 0
M  V30 11664 O 1105.76 -0.455177 1.85291 0
M  V30 11665 C 1102.9 -0.368159 3.43131 0
M  V30 11666 C 1102.02 0.586202 4.28004 0
M  V30 11667 C 1101.15 -0.190581 5.30858 0
M  V30 11668 C 1100.19 0.757758 6.07391 0
M  V30 11669 N 1099.33 0.0148488 7.02098 0
M  V30 11670 H 1104.17 1.23717 2.71105 0
M  V30 11671 H 1101.71 0.621382 1.33331 0
M  V30 11672 H 1103.66 -0.824289 4.08976 0
M  V30 11673 H 1102.29 -1.17898 3.00499 0
M  V30 11674 H 1101.35 1.16086 3.62254 0
M  V30 11675 H 1102.66 1.31177 4.81242 0
M  V30 11676 H 1101.81 -0.707528 6.0256 0
M  V30 11677 H 1100.55 -0.949234 4.78373 0
M  V30 11678 H 1099.56 1.28613 5.34545 0
M  V30 11679 H 1100.78 1.51588 6.61965 0
M  V30 11680 H 1098.73 -0.725916 6.51971 0
M  V30 11681 H 1098.64 0.680347 7.52932 0
M  V30 11682 H 1099.91 -0.482086 7.78008 0
M  V30 11683 N 1104.14 -1.42577 0.671525 0
M  V30 11684 C 1105.05 -2.34598 -0.00898225 0
M  V30 11685 C 1106.07 -1.54909 -0.792407 0
M  V30 11686 O 1107.24 -1.87491 -0.735477 0
M  V30 11687 C 1104.31 -3.33405 -0.950888 0
M  V30 11688 C 1103.37 -4.28993 -0.16236 0
M  V30 11689 C 1102.6 -5.2308 -1.0594 0
M  V30 11690 O 1102.82 -5.22022 -2.2989 0
M  V30 11691 O 1101.76 -5.99632 -0.521966 0
M  V30 11692 H 1105.58 -2.94321 0.748927 0
M  V30 11693 H 1103.17 -1.43025 0.43175 0
M  V30 11694 H 1105.05 -3.94115 -1.49169 0
M  V30 11695 H 1103.73 -2.7616 -1.68871 0
M  V30 11696 H 1102.63 -3.71707 0.42247 0
M  V30 11697 H 1103.97 -4.8927 0.536274 0
M  V30 11698 N 1105.62 -0.414636 -1.52048 0
M  V30 11699 C 1107.03 0.0537107 -1.86623 0
M  V30 11700 C 1107.38 1.43955 -1.3331 0
M  V30 11701 O 1106.51 2.05616 -0.674606 0
M  V30 11702 C 1107.1 0.104241 -3.3864 0
M  V30 11703 C 1105.66 0.516936 -3.72833 0
M  V30 11704 C 1104.81 -0.305042 -2.75617 0
M  V30 11705 H 1107.76 -0.631469 -1.45596 0
M  V30 11706 H 1107.78 0.918395 -3.6925 0
M  V30 11707 H 1107.29 -0.904523 -3.77412 0
M  V30 11708 H 1105.39 1.53214 -3.39641 0
M  V30 11709 H 1105.5 0.2575 -4.78408 0
M  V30 11710 H 1103.87 0.233416 -2.53628 0
M  V30 11711 H 1104.65 -1.31226 -3.1723 0
M  V30 11712 N 1107.1 1.56929 -0.145233 0
M  V30 11713 C 1108.32 2.00864 0.516564 0
M  V30 11714 C 1108.75 1.02466 1.57741 0
M  V30 11715 O 1108.1 0.000145439 1.813 0
M  V30 11716 C 1108.15 3.43552 1.09563 0
M  V30 11717 O 1107.26 3.4815 2.21055 0
M  V30 11718 H 1106.6 0.651835 0.126521 0
M  V30 11719 H 1109.13 2.0317 -0.241445 0
M  V30 11720 H 1109.14 3.82316 1.42473 0
M  V30 11721 H 1107.81 4.14677 0.318749 0
M  V30 11722 H 1106.39 3.21228 1.89387 0
M  V30 11723 N 1108.58 -0.128553 1.57075 0
M  V30 11724 C 1109.82 -0.839252 1.8462 0
M  V30 11725 C 1110.15 -1.79974 0.729582 0
M  V30 11726 O 1109.43 -1.92681 -0.265369 0
M  V30 11727 C 1109.71 -1.59756 3.22723 0
M  V30 11728 C 1109.57 -0.657313 4.44971 0
M  V30 11729 C 1110.88 -2.55592 3.58275 0
M  V30 11730 H 1108 -0.303652 0.671539 0
M  V30 11731 H 1110.65 -0.103802 1.89716 0
M  V30 11732 H 1108.8 -2.22451 3.18509 0
M  V30 11733 H 1110.47 -0.0399471 4.61283 0
M  V30 11734 H 1108.71 0.0318416 4.33788 0
M  V30 11735 H 1109.38 -1.22433 5.38251 0
M  V30 11736 H 1111.86 -2.03007 3.63218 0
M  V30 11737 H 1110.73 -3.05687 4.55902 0
M  V30 11738 H 1110.99 -3.37813 2.85193 0
M  V30 11739 N 1110.05 -1.5248 -0.398459 0
M  V30 11740 C 1111.02 -1.75949 -1.46883 0
M  V30 11741 C 1112.02 -0.629431 -1.47969 0
M  V30 11742 O 1113.21 -0.897407 -1.49306 0
M  V30 11743 C 1110.34 -1.85162 -2.8623 0
M  V30 11744 H 1111.53 -2.71513 -1.2736 0
M  V30 11745 H 1109.08 -1.43058 -0.629619 0
M  V30 11746 H 1109.82 -0.915505 -3.11109 0
M  V30 11747 H 1109.6 -2.67326 -2.86844 0
M  V30 11748 H 1111.09 -2.05025 -3.63805 0
M  V30 11749 N 1111.53 0.65634 -1.43283 0
M  V30 11750 C 1112.76 1.44408 -1.48168 0
M  V30 11751 C 1113.17 1.88542 -0.0986016 0
M  V30 11752 O 1112.53 1.59298 0.890527 0
M  V30 11753 C 1112.58 2.68111 -2.42484 0
M  V30 11754 O 1112.3 2.25824 -3.75413 0
M  V30 11755 C 1113.8 3.61499 -2.56579 0
M  V30 11756 H 1111.02 0.443731 -0.503333 0
M  V30 11757 H 1113.57 0.804917 -1.87993 0
M  V30 11758 H 1111.72 3.28175 -2.05863 0
M  V30 11759 H 1112.14 3.05839 -4.26102 0
M  V30 11760 H 1113.61 4.44972 -3.26655 0
M  V30 11761 H 1114.09 4.08639 -1.60969 0
M  V30 11762 H 1114.69 3.07319 -2.93998 0
M  V30 11763 N 1113.01 1.29761 0.894412 0
M  V30 11764 C 1113.94 1.17902 2.01547 0
M  V30 11765 C 1114.92 0.0719402 1.69948 0
M  V30 11766 O 1116.11 0.252338 1.92554 0
M  V30 11767 C 1113.24 0.860262 3.36477 0
M  V30 11768 C 1112.19 1.92424 3.82305 0
M  V30 11769 C 1111.52 1.45868 5.14419 0
M  V30 11770 C 1112.82 3.33391 4.02054 0
M  V30 11771 H 1114.51 2.11688 2.11727 0
M  V30 11772 H 1112.06 1.01916 1.01731 0
M  V30 11773 H 1114.01 0.763987 4.14417 0
M  V30 11774 H 1112.73 -0.113289 3.26403 0
M  V30 11775 H 1111.39 2.00999 3.06586 0
M  V30 11776 H 1111.04 0.473654 5.00765 0
M  V30 11777 H 1110.74 2.17028 5.46052 0
M  V30 11778 H 1112.26 1.37601 5.94894 0
M  V30 11779 H 1113.68 3.27628 4.7046 0
M  V30 11780 H 1112.07 4.02555 4.4505 0
M  V30 11781 H 1113.14 3.75978 3.06216 0
M  V30 11782 N 1114.49 -1.10549 1.12324 0
M  V30 11783 C 1115.74 -1.82124 0.876083 0
M  V30 11784 C 1116.06 -1.85547 -0.599761 0
M  V30 11785 O 1115.33 -1.33269 -1.43584 0
M  V30 11786 H 1113.91 -0.674455 0.321122 0
M  V30 11787 H 1116.57 -1.33766 1.41748 0
M  V30 11788 H 1115.66 -2.85688 1.25653 0
M  V30 11789 N 1115.97 -0.914965 -1.28321 0
M  V30 11790 C 1117.21 -0.547665 -1.94538 0
M  V30 11791 C 1117.53 0.911834 -1.72368 0
M  V30 11792 O 1116.8 1.64481 -1.06408 0
M  V30 11793 H 1115.38 -0.199549 -0.719853 0
M  V30 11794 H 1118.05 -1.16459 -1.5628 0
M  V30 11795 H 1117.14 -0.743138 -3.03124 0
M  V30 11796 N 1117.44 1.42219 -0.679077 0
M  V30 11797 C 1118.67 2.06333 -0.210097 0
M  V30 11798 C 1119.09 1.50703 1.12562 0
M  V30 11799 O 1118.45 0.627241 1.70104 0
M  V30 11800 C 1118.5 3.60243 -0.160322 0
M  V30 11801 O 1117.6 4.03122 0.869872 0
M  V30 11802 H 1116.94 0.655362 -0.106754 0
M  V30 11803 H 1119.47 1.82278 -0.929294 0
M  V30 11804 H 1119.48 4.07997 0.014384 0
M  V30 11805 H 1118.16 4.00106 -1.13526 0
M  V30 11806 H 1116.74 3.66907 0.66586 0
M  V30 11807 N 1118.92 0.422693 1.51826 0
M  V30 11808 C 1119.87 -0.396088 2.27376 0
M  V30 11809 C 1120.84 -1.02946 1.30351 0
M  V30 11810 O 1122.02 -1.05116 1.59233 0
M  V30 11811 C 1119.16 -1.49942 3.10824 0
M  V30 11812 C 1118.28 -0.885623 4.22825 0
M  V30 11813 C 1117.41 -1.96278 4.93608 0
M  V30 11814 C 1116.45 -1.32664 5.97551 0
M  V30 11815 N 1115.59 -2.34452 6.61798 0
M  V30 11816 H 1120.43 0.254571 2.96911 0
M  V30 11817 H 1117.96 0.137383 1.46457 0
M  V30 11818 H 1119.92 -2.15023 3.57521 0
M  V30 11819 H 1118.55 -2.11991 2.43433 0
M  V30 11820 H 1117.6 -0.123491 3.80199 0
M  V30 11821 H 1118.92 -0.381057 4.97342 0
M  V30 11822 H 1118.07 -2.69055 5.43778 0
M  V30 11823 H 1116.81 -2.50103 4.18688 0
M  V30 11824 H 1115.81 -0.584262 5.46687 0
M  V30 11825 H 1117.04 -0.7959 6.7442 0
M  V30 11826 H 1114.99 -2.87385 5.897 0
M  V30 11827 H 1114.9 -1.88845 7.32034 0
M  V30 11828 H 1116.17 -3.06757 7.16603 0
M  V30 11829 N 1120.4 -1.5685 0.153553 0
M  V30 11830 C 1121.81 -1.83074 -0.36618 0
M  V30 11831 C 1122.16 -1.07257 -1.64288 0
M  V30 11832 O 1121.29 -0.319925 -2.14022 0
M  V30 11833 C 1121.88 -3.32086 -0.671142 0
M  V30 11834 C 1120.44 -3.58868 -1.13537 0
M  V30 11835 C 1119.59 -2.76827 -0.161887 0
M  V30 11836 H 1122.54 -1.54129 0.378139 0
M  V30 11837 H 1122.56 -3.48598 -1.52512 0
M  V30 11838 H 1122.07 -3.8724 0.258234 0
M  V30 11839 H 1120.17 -3.09107 -2.08047 0
M  V30 11840 H 1120.29 -4.67299 -1.05682 0
M  V30 11841 H 1118.65 -2.46112 -0.6558 0
M  V30 11842 H 1119.43 -3.34755 0.761195 0
M  V30 11843 N 1121.88 0.120221 -1.57141 0
M  V30 11844 C 1123.13 0.826586 -1.84423 0
M  V30 11845 C 1123.45 1.80473 -0.738553 0
M  V30 11846 O 1122.72 1.94454 0.23755 0
M  V30 11847 H 1121.3 0.308246 -0.680436 0
M  V30 11848 H 1123.96 0.107835 -1.94601 0
M  V30 11849 H 1123.05 1.37256 -2.80298 0
M  V30 11850 N 1123.36 1.52689 0.390367 0
M  V30 11851 C 1124.32 1.76726 1.45947 0
M  V30 11852 C 1125.32 0.637269 1.47633 0
M  V30 11853 O 1126.51 0.905312 1.48828 0
M  V30 11854 C 1123.64 1.86678 2.85244 0
M  V30 11855 H 1124.83 2.72185 1.25918 0
M  V30 11856 H 1122.39 1.4339 0.622023 0
M  V30 11857 H 1123.12 0.931991 3.10619 0
M  V30 11858 H 1122.91 2.68843 2.85422 0
M  V30 11859 H 1124.4 2.06952 3.62713 0
M  V30 11860 N 1124.83 -0.648732 1.43629 0
M  V30 11861 C 1125.74 -1.79046 1.51591 0
M  V30 11862 C 1126.76 -1.69276 0.402697 0
M  V30 11863 O 1127.94 -1.90366 0.657484 0
M  V30 11864 C 1125 -3.15347 1.44073 0
M  V30 11865 C 1124.06 -3.3688 2.66102 0
M  V30 11866 C 1123.3 -4.66679 2.58933 0
M  V30 11867 O 1123.52 -5.46328 1.63956 0
M  V30 11868 O 1122.45 -4.9003 3.49506 0
M  V30 11869 H 1126.28 -1.75283 2.48011 0
M  V30 11870 H 1123.86 -0.807774 1.2568 0
M  V30 11871 H 1125.75 -3.96633 1.42339 0
M  V30 11872 H 1124.42 -3.19691 0.50789 0
M  V30 11873 H 1123.33 -2.55341 2.73407 0
M  V30 11874 H 1124.66 -3.37386 3.58373 0
M  V30 11875 N 1126.31 -1.30234 -0.887518 0
M  V30 11876 C 1127.25 -1.10726 -1.99537 0
M  V30 11877 C 1128.22 -0.0156237 -1.62592 0
M  V30 11878 O 1129.41 -0.168687 -1.87744 0
M  V30 11879 C 1126.53 -0.688185 -3.31635 0
M  V30 11880 C 1125.58 -1.78031 -3.87566 0
M  V30 11881 S 1126.41 -3.38219 -4.15172 0
M  V30 11882 C 1127.57 -2.98208 -5.50293 0
M  V30 11883 H 1127.8 -2.04516 -2.15778 0
M  V30 11884 H 1125.34 -1.14519 -1.0356 0
M  V30 11885 H 1127.29 -0.453124 -4.07991 0
M  V30 11886 H 1125.95 0.230315 -3.13254 0
M  V30 11887 H 1125.15 -1.43931 -4.83011 0
M  V30 11888 H 1124.75 -1.96952 -3.1794 0
M  V30 11889 H 1127.04 -2.4601 -6.31257 0
M  V30 11890 H 1127.98 -3.92551 -5.89329 0
M  V30 11891 H 1128.39 -2.36149 -5.12732 0
M  V30 11892 N 1127.79 1.09952 -1.12909 0
M  V30 11893 C 1128.7 2.19999 -0.81471 0
M  V30 11894 C 1129.72 1.72864 0.19851 0
M  V30 11895 O 1130.89 2.01376 0.0308832 0
M  V30 11896 C 1127.96 3.45573 -0.279363 0
M  V30 11897 C 1127.02 4.07417 -1.35314 0
M  V30 11898 C 1126.25 5.26996 -0.843247 0
M  V30 11899 O 1126.47 5.69495 0.321164 0
M  V30 11900 O 1125.41 5.79826 -1.61511 0
M  V30 11901 H 1129.23 2.49333 -1.73398 0
M  V30 11902 H 1126.82 1.18784 -0.906128 0
M  V30 11903 H 1128.7 4.21398 0.0140531 0
M  V30 11904 H 1127.38 3.17854 0.612401 0
M  V30 11905 H 1126.28 3.33253 -1.6998 0
M  V30 11906 H 1127.62 4.39349 -2.21885 0
M  V30 11907 N 1129.27 0.921757 1.27833 0
M  V30 11908 C 1130.52 0.55493 1.93916 0
M  V30 11909 C 1130.83 -0.907191 1.7329 0
M  V30 11910 O 1132.04 -1.38253 2.33663 0
M  V30 11911 C 1130.49 0.941644 3.47363 0
M  V30 11912 C 1130.1 2.42404 3.76755 0
M  V30 11913 C 1131.84 0.645785 4.19559 0
M  V30 11914 C 1129.75 2.75046 5.23549 0
M  V30 11915 H 1128.68 0.203818 0.72593 0
M  V30 11916 H 1131.33 1.12176 1.4522 0
M  V30 11917 H 1129.71 0.303519 3.94835 0
M  V30 11918 H 1130.89 3.10957 3.40062 0
M  V30 11919 H 1129.2 2.69118 3.17749 0
M  V30 11920 H 1131.8 0.866237 5.27637 0
M  V30 11921 H 1132.14 -0.41676 4.14209 0
M  V30 11922 H 1132.68 1.24274 3.7789 0
M  V30 11923 H 1129.42 3.80186 5.33984 0
M  V30 11924 H 1128.94 2.11138 5.6141 0
M  V30 11925 H 1130.61 2.62474 5.91368 0
M  V30 11926 O 1130.79 -1.38808 0.825501 0
M  V30 11927 H 1131.48 -1.89342 0.408555 0
M  V30 END ATOM
M  V30 BEGIN BOND
M  V30 END BOND
M  V30 END CTAB
M  END
$$$$
