drugbank_drug|DB13884 >Albutrepenonacog alfa<<<<
 OpenBabel12092119113D

  0  0  0     0  0            999 V3000
M  V30 BEGIN CTAB
M  V30 COUNTS 15927 16091 0 0 0
M  V30 BEGIN ATOM
M  V30 1 H -0.908 1.98254 -0.117106 0
M  V30 2 N 0 1.576 0 0
M  V30 3 C 1.23 1.94566 0.694824 0
M  V30 4 C 1.638 0.873344 1.67837 0
M  V30 5 O 0.981 -0.15633 1.83034 0
M  V30 6 C 1.043 3.27518 1.48229 0
M  V30 7 C 0.707 4.52204 0.66033 0
M  V30 8 C 1.704 5.19874 -0.0519891 0
M  V30 9 C -0.611 4.98627 0.606301 0
M  V30 10 C 1.383 6.32267 -0.807324 0
M  V30 11 C -0.93 6.10909 -0.152759 0
M  V30 12 C 0.068 6.77586 -0.858305 0
M  V30 13 O -0.244 7.87715 -1.60498 0
M  V30 14 H -0.512 0.646206 0.19848 0
M  V30 15 H 2.042 2.05346 -0.0472378 0
M  V30 16 H 0.272 3.13146 2.26884 0
M  V30 17 H 1.961 3.49596 2.06246 0
M  V30 18 H 2.727 4.84996 -0.0193999 0
M  V30 19 H -1.394 4.46554 1.145 0
M  V30 20 H 2.15 6.84243 -1.35856 0
M  V30 21 H -1.953 6.45229 -0.187169 0
M  V30 22 H -1.185 8.04231 -1.52169 0
M  V30 23 N 1.4781 -0.272755 1.55222 0
M  V30 24 C 2.4261 -1.35705 1.88909 0
M  V30 25 C 3.4201 -1.5112 0.765456 0
M  V30 26 O 4.6261 -1.52901 0.949802 0
M  V30 27 H 1.0011 -0.453868 0.59959 0
M  V30 28 H 2.9721 -1.04544 2.79487 0
M  V30 29 C 1.7211 -2.71049 2.17779 0
M  V30 30 H 1.0441 -2.59979 3.03728 0
M  V30 31 H 2.4841 -3.45858 2.45272 0
M  V30 32 C 0.9431 -3.22165 0.985473 0
M  V30 33 O 1.4731 -4.01096 0.220233 0
M  V30 34 N -0.3209 -2.7985 0.783108 0
M  V30 35 H -0.7739 -2.15775 1.40708 0
M  V30 36 H -0.8159 -3.14397 -0.0130392 0
M  V30 37 N 2.9562 -1.48159 -0.537278 0
M  V30 38 C 4.1812 -1.59707 -1.32319 0
M  V30 39 C 4.6062 -0.254859 -1.86365 0
M  V30 40 O 3.9642 0.772378 -1.64024 0
M  V30 41 C 4.0122 -2.6412 -2.45505 0
M  V30 42 O 3.1162 -2.20774 -3.48328 0
M  V30 43 H 2.4572 -0.535791 -0.392204 0
M  V30 44 H 4.9872 -1.94092 -0.647268 0
M  V30 45 H 4.9972 -2.85166 -2.91795 0
M  V30 46 H 3.6722 -3.61567 -2.05528 0
M  V30 47 H 2.2492 -2.09911 -3.08207 0
M  V30 48 N 4.4343 0.785586 -1.36625 0
M  V30 49 C 5.6823 1.54057 -1.30808 0
M  V30 50 C 6.0033 1.94683 0.111157 0
M  V30 51 O 5.2733 1.65241 1.05224 0
M  V30 52 H 3.8533 0.571354 -0.481211 0
M  V30 53 H 6.5153 0.935821 -1.70963 0
M  V30 54 H 5.6113 2.44637 -1.93801 0
M  V30 55 N 5.9124 1.20967 1.01018 0
M  V30 56 C 6.8594 0.964281 2.09691 0
M  V30 57 C 7.8294 -0.107853 1.65749 0
M  V30 58 O 9.0144 0.0381987 1.90762 0
M  V30 59 C 6.1544 0.52943 3.41015 0
M  V30 60 C 5.2674 1.67043 3.98398 0
M  V30 61 C 4.4024 1.18525 5.17808 0
M  V30 62 C 3.4414 2.29892 5.67288 0
M  V30 63 N 2.5784 1.82546 6.77954 0
M  V30 64 H 7.4184 1.89463 2.30017 0
M  V30 65 H 4.9554 0.944289 1.1279 0
M  V30 66 H 6.9134 0.258588 4.16398 0
M  V30 67 H 5.5434 -0.363919 3.20742 0
M  V30 68 H 4.5954 2.05603 3.20049 0
M  V30 69 H 5.9074 2.50877 4.31117 0
M  V30 70 H 5.0614 0.870762 6.00419 0
M  V30 71 H 3.8004 0.316887 4.86669 0
M  V30 72 H 2.8054 2.6215 4.83278 0
M  V30 73 H 4.0304 3.17216 6.00459 0
M  V30 74 H 1.9764 0.980454 6.48632 0
M  V30 75 H 1.8934 2.59956 7.09901 0
M  V30 76 H 3.1614 1.54115 7.64113 0
M  V30 77 N 7.3905 -1.2043 1.01659 0
M  V30 78 C 8.3205 -2.25466 0.607226 0
M  V30 79 C 9.3015 -1.65853 -0.377716 0
M  V30 80 O 10.4865 -1.92409 -0.263149 0
M  V30 81 C 7.6165 -3.47256 -0.0552949 0
M  V30 82 C 6.5705 -4.19462 0.850632 0
M  V30 83 C 5.8965 -5.34673 0.0538859 0
M  V30 84 C 7.1965 -4.75603 2.15868 0
M  V30 85 H 8.8905 -2.59962 1.48526 0
M  V30 86 H 6.4365 -1.2496 0.715605 0
M  V30 87 H 8.3895 -4.19917 -0.353233 0
M  V30 88 H 7.1135 -3.11924 -0.968045 0
M  V30 89 H 5.7725 -3.48667 1.13257 0
M  V30 90 H 5.4205 -4.95585 -0.860514 0
M  V30 91 H 5.1205 -5.83913 0.657192 0
M  V30 92 H 6.6445 -6.10138 -0.237598 0
M  V30 93 H 8.0585 -5.40083 1.92311 0
M  V30 94 H 6.4555 -5.3528 2.71284 0
M  V30 95 H 7.5255 -3.94346 2.82169 0
M  V30 96 N 8.8686 -0.792821 -1.36206 0
M  V30 97 C 9.7786 -0.194808 -2.3379 0
M  V30 98 C 10.7946 0.654869 -1.61206 0
M  V30 99 O 11.9706 0.569856 -1.9317 0
M  V30 100 C 9.0356 0.657721 -3.40404 0
M  V30 101 C 8.0966 -0.210849 -4.28782 0
M  V30 102 C 7.3296 0.601086 -5.30304 0
M  V30 103 O 7.5526 1.83682 -5.40016 0
M  V30 104 O 6.4866 -0.000808277 -6.019 0
M  V30 105 H 10.3126 -1.00172 -2.86704 0
M  V30 106 H 7.8976 -0.554341 -1.38735 0
M  V30 107 H 9.7796 1.14375 -4.05581 0
M  V30 108 H 8.4546 1.44247 -2.89784 0
M  V30 109 H 7.3616 -0.743714 -3.66633 0
M  V30 110 H 8.6946 -0.959195 -4.82763 0
M  V30 111 N 10.3467 1.47872 -0.545128 0
M  V30 112 C 11.2567 2.33633 0.212746 0
M  V30 113 C 12.2727 1.4744 0.923983 0
M  V30 114 O 13.4487 1.80393 0.895572 0
M  V30 115 C 10.5137 3.23884 1.23693 0
M  V30 116 C 9.5747 4.25961 0.534417 0
M  V30 117 C 8.8077 5.11899 1.5098 0
M  V30 118 O 9.0307 5.00077 2.7437 0
M  V30 119 O 7.9647 5.92831 1.0409 0
M  V30 120 H 11.7907 2.99714 -0.490416 0
M  V30 121 H 9.3757 1.46235 -0.305871 0
M  V30 122 H 11.2577 3.79666 1.82843 0
M  V30 123 H 9.9327 2.60446 1.92222 0
M  V30 124 H 8.8397 3.73972 -0.0979679 0
M  V30 125 H 10.1727 4.92079 -0.109213 0
M  V30 126 N 11.8248 0.280983 1.55075 0
M  V30 127 C 13.0718 -0.334115 1.99725 0
M  V30 128 C 13.3998 -1.5542 1.1694 0
M  V30 129 O 12.6548 -1.94361 0.228531 0
M  V30 130 C 12.9538 -0.754656 3.49342 0
M  V30 131 C 12.6198 0.361445 4.49449 0
M  V30 132 C 11.2818 0.667893 4.76542 0
M  V30 133 C 13.6338 1.11322 5.09173 0
M  V30 134 C 10.9618 1.7296 5.60626 0
M  V30 135 C 13.3138 2.1647 5.9441 0
M  V30 136 C 11.9778 2.47742 6.19822 0
M  V30 137 H 11.2478 -0.122261 0.730844 0
M  V30 138 H 13.8948 0.395917 1.87363 0
M  V30 139 H 12.1998 -1.56446 3.5921 0
M  V30 140 H 13.8968 -1.24142 3.813 0
M  V30 141 H 10.4868 0.112481 4.28452 0
M  V30 142 H 14.6708 0.88973 4.8826 0
M  V30 143 H 9.9268 1.97684 5.78559 0
M  V30 144 H 14.1008 2.75193 6.3972 0
M  V30 145 H 11.7278 3.30145 6.84769 0
M  V30 146 N 13.3029 -1.57598 0.00835791 0
M  V30 147 C 14.5489 -1.91211 -0.675732 0
M  V30 148 C 14.8819 -0.883139 -1.72958 0
M  V30 149 O 14.1569 0.097016 -1.94258 0
M  V30 150 C 14.4399 -3.35379 -1.31123 0
M  V30 151 C 14.2929 -4.48999 -0.268356 0
M  V30 152 C 15.6119 -3.7912 -2.23508 0
M  V30 153 H 12.7309 -0.695374 -0.244179 0
M  V30 154 H 15.3729 -1.89901 0.0613655 0
M  V30 155 H 13.5229 -3.36626 -1.93946 0
M  V30 156 H 15.1949 -4.59887 0.360844 0
M  V30 157 H 13.4379 -4.31873 0.408482 0
M  V30 158 H 14.1089 -5.46851 -0.752218 0
M  V30 159 H 16.5849 -3.79477 -1.70693 0
M  V30 160 H 15.4609 -4.80729 -2.64936 0
M  V30 161 H 15.7219 -3.13455 -3.11766 0
M  V30 162 N 14.781 0.264519 -1.55364 0
M  V30 163 C 15.713 1.34965 -1.85248 0
M  V30 164 C 16.726 1.45136 -0.737525 0
M  V30 165 O 17.915 1.46801 -1.01547 0
M  V30 166 C 15.015 2.73008 -2.00797 0
M  V30 167 C 14.188 2.85324 -3.31525 0
M  V30 168 C 13.247 4.04097 -3.37034 0
M  V30 169 O 12.273 3.94455 -4.10358 0
M  V30 170 N 13.475 5.16458 -2.65049 0
M  V30 171 H 16.24 1.09672 -2.78913 0
M  V30 172 H 13.801 0.454635 -1.55386 0
M  V30 173 H 15.793 3.50772 -2.01844 0
M  V30 174 H 14.363 2.91087 -1.1396 0
M  V30 175 H 13.583 1.94377 -3.42945 0
M  V30 176 H 14.871 2.9049 -4.17724 0
M  V30 177 H 14.269 5.27181 -2.05175 0
M  V30 178 H 12.826 5.92422 -2.71809 0
M  V30 179 N 16.2591 1.48442 0.529413 0
M  V30 180 C 17.5071 1.56179 1.28267 0
M  V30 181 C 17.8281 0.237721 1.93546 0
M  V30 182 O 17.0981 -0.740779 1.81354 0
M  V30 183 H 15.6781 0.575367 0.476405 0
M  V30 184 H 18.3401 1.84909 0.61602 0
M  V30 185 H 17.4361 2.34312 2.06165 0
M  V30 186 N 17.7372 -0.778329 1.37039 0
M  V30 187 C 18.6852 -1.91278 1.32345 0
M  V30 188 C 19.6792 -1.68051 0.213331 0
M  V30 189 O 20.8852 -1.75922 0.38098 0
M  V30 190 H 17.2602 -0.628909 0.412283 0
M  V30 191 H 19.2312 -1.92355 2.28127 0
M  V30 192 C 17.9802 -3.28455 1.14073 0
M  V30 193 H 17.3032 -3.46901 1.98746 0
M  V30 194 H 18.7432 -4.08152 1.14837 0
M  V30 195 C 17.2022 -3.36548 -0.154015 0
M  V30 196 O 17.7322 -3.85186 -1.13993 0
M  V30 197 N 15.9382 -2.89894 -0.202475 0
M  V30 198 H 15.4852 -2.50504 0.600476 0
M  V30 199 H 15.4432 -2.9569 -1.06841 0
M  V30 200 N 19.2153 -1.21501 -1.00376 0
M  V30 201 C 20.1453 -0.999478 -2.11028 0
M  V30 202 C 21.1263 0.0759671 -1.6993 0
M  V30 203 O 22.3113 -0.0841106 -1.94018 0
M  V30 204 C 19.4413 -0.564709 -3.42678 0
M  V30 205 C 18.3953 -1.58486 -3.97576 0
M  V30 206 C 17.7213 -1.00628 -5.25146 0
M  V30 207 C 19.0213 -2.97204 -4.29496 0
M  V30 208 H 20.7153 -1.92495 -2.29317 0
M  V30 209 H 18.2613 -0.92693 -1.102 0
M  V30 210 H 20.2143 -0.401091 -4.19487 0
M  V30 211 H 18.9383 0.396411 -3.24185 0
M  V30 212 H 17.5973 -1.73606 -3.22888 0
M  V30 213 H 17.2453 -0.0368439 -5.02987 0
M  V30 214 H 16.9453 -1.68771 -5.62841 0
M  V30 215 H 18.4693 -0.854015 -6.04598 0
M  V30 216 H 19.8833 -2.8552 -4.97143 0
M  V30 217 H 18.2803 -3.62372 -4.78338 0
M  V30 218 H 19.3503 -3.47956 -3.3772 0
M  V30 219 N 20.6934 1.19889 -1.02296 0
M  V30 220 C 21.6034 2.26571 -0.608508 0
M  V30 221 C 22.6194 1.70299 0.356964 0
M  V30 222 O 23.7954 2.00235 0.216326 0
M  V30 223 C 20.8604 3.46677 0.0402814 0
M  V30 224 C 19.9214 4.18153 -0.97194 0
M  V30 225 C 19.1544 5.32525 -0.354016 0
M  V30 226 O 19.3774 5.64112 0.844604 0
M  V30 227 O 18.3114 5.92242 -1.07391 0
M  V30 228 H 22.1374 2.64251 -1.49684 0
M  V30 229 H 19.7224 1.26629 -0.792809 0
M  V30 230 H 21.6044 4.19475 0.402324 0
M  V30 231 H 20.2794 3.10858 0.902707 0
M  V30 232 H 19.1864 3.47499 -1.38546 0
M  V30 233 H 20.5194 4.57927 -1.80454 0
M  V30 234 N 22.1715 0.800033 1.35784 0
M  V30 235 C 23.5875 0.482977 1.52117 0
M  V30 236 C 23.7875 -0.996948 1.75109 0
M  V30 237 O 22.8435 -1.78216 1.78872 0
M  V30 238 C 24.1565 1.32264 2.70049 0
M  V30 239 C 25.7045 1.31742 2.83924 0
M  V30 240 C 26.1795 2.14106 4.04874 0
M  V30 241 N 27.6705 2.11607 4.12039 0
M  V30 242 C 28.4055 2.72099 5.04727 0
M  V30 243 N 27.9015 3.41492 6.02789 0
M  V30 244 N 29.6945 2.61776 4.97423 0
M  V30 245 H 21.8455 1.75856 1.19115 0
M  V30 246 H 24.1085 0.748122 0.582252 0
M  V30 247 H 23.8145 2.37261 2.59616 0
M  V30 248 H 23.6885 0.971303 3.6448 0
M  V30 249 H 26.0755 0.275333 2.93813 0
M  V30 250 H 26.1565 1.70859 1.9037 0
M  V30 251 H 25.8005 3.18351 3.95746 0
M  V30 252 H 25.7305 1.72353 4.97596 0
M  V30 253 H 28.2215 1.61112 3.41835 0
M  V30 254 H 28.5345 3.84953 6.70098 0
M  V30 255 H 26.8795 3.45596 6.02983 0
M  V30 256 H 30.0705 2.07157 4.19766 0
M  V30 257 H 30.2435 3.0921 5.69468 0
M  V30 258 N 23.6496 -1.47581 0.552962 0
M  V30 259 C 24.5596 -2.33743 -0.200353 0
M  V30 260 C 25.5756 -1.47928 -0.916151 0
M  V30 261 O 26.7516 -1.80865 -0.885993 0
M  V30 262 C 23.8166 -3.24536 -1.21973 0
M  V30 263 C 22.8776 -4.26238 -0.511819 0
M  V30 264 C 22.1106 -5.12693 -1.48263 0
M  V30 265 O 22.3336 -5.01525 -2.71714 0
M  V30 266 O 21.2676 -5.93375 -1.00945 0
M  V30 267 H 25.0936 -2.9945 0.506304 0
M  V30 268 H 22.6786 -1.46071 0.313622 0
M  V30 269 H 24.5606 -3.80631 -1.80827 0
M  V30 270 H 23.2356 -2.61462 -1.90839 0
M  V30 271 H 22.1426 -3.73914 0.117799 0
M  V30 272 H 23.4756 -4.92014 0.135308 0
M  V30 273 N 25.1277 -0.289203 -1.54924 0
M  V30 274 C 26.3677 0.324536 -2.01807 0
M  V30 275 C 26.7317 1.5199 -1.17316 0
M  V30 276 O 27.9327 2.20422 -1.53843 0
M  V30 277 C 26.2037 0.683578 -3.50802 0
M  V30 278 S 27.7627 1.28185 -4.19659 0
M  V30 279 H 24.5807 0.100236 -0.703899 0
M  V30 280 H 27.1827 -0.414325 -1.91059 0
M  V30 281 H 25.8867 -0.195073 -4.09936 0
M  V30 282 H 25.4177 1.45354 -3.65562 0
M  V30 283 H 27.4327 2.57006 -4.24456 0
M  V30 284 N 26.6058 1.57591 -0.0167156 0
M  V30 285 C 27.5388 2.04944 1.00366 0
M  V30 286 C 28.5168 0.942648 1.32487 0
M  V30 287 O 29.7008 1.21205 1.44367 0
M  V30 288 C 26.8278 2.46109 2.32697 0
M  V30 289 C 25.8738 3.67686 2.16123 0
M  V30 290 S 26.7068 5.14882 1.47161 0
M  V30 291 C 27.8628 5.59332 2.80888 0
M  V30 292 H 28.0958 2.91172 0.600528 0
M  V30 293 H 25.6288 1.53168 0.194632 0
M  V30 294 H 27.5868 2.70493 3.08778 0
M  V30 295 H 26.2478 1.6025 2.70146 0
M  V30 296 H 25.4408 3.94296 3.13922 0
M  V30 297 H 25.0428 3.43391 1.48185 0
M  V30 298 H 27.3348 5.62814 3.77156 0
M  V30 299 H 28.2778 6.5905 2.58958 0
M  V30 300 H 28.6858 4.86942 2.85565 0
M  V30 301 N 28.0839 -0.256276 1.55502 0
M  V30 302 C 28.9939 -1.33882 1.92647 0
M  V30 303 C 30.0099 -1.53159 0.825727 0
M  V30 304 O 31.1859 -1.66963 1.12629 0
M  V30 305 C 28.2509 -2.6751 2.20543 0
M  V30 306 C 27.3119 -2.56836 3.43997 0
M  V30 307 C 26.5449 -3.84092 3.70553 0
M  V30 308 O 26.7679 -4.85545 2.99336 0
M  V30 309 O 25.7019 -3.83288 4.64084 0
M  V30 310 H 29.5279 -1.05374 2.84833 0
M  V30 311 H 27.1129 -0.456237 1.42263 0
M  V30 312 H 28.9949 -3.46492 2.39835 0
M  V30 313 H 27.6699 -2.9577 1.31536 0
M  V30 314 H 26.5769 -1.76172 3.30021 0
M  V30 315 H 27.9099 -2.33523 4.33275 0
M  V30 316 N 29.562 -1.4872 -0.521534 0
M  V30 317 C 30.472 -1.66569 -1.65203 0
M  V30 318 C 31.488 -0.548197 -1.65139 0
M  V30 319 O 32.664 -0.820339 -1.83936 0
M  V30 320 C 29.729 -1.70917 -3.01642 0
M  V30 321 C 28.79 -2.94356 -3.12495 0
M  V30 322 C 28.023 -2.98487 -4.42426 0
M  V30 323 O 28.246 -2.10786 -5.30024 0
M  V30 324 O 27.18 -3.90746 -4.57822 0
M  V30 325 H 31.006 -2.62298 -1.5308 0
M  V30 326 H 28.591 -1.3222 -0.695565 0
M  V30 327 H 30.473 -1.7625 -3.82771 0
M  V30 328 H 29.148 -0.783633 -3.14071 0
M  V30 329 H 28.055 -2.94552 -2.3063 0
M  V30 330 H 29.388 -3.86322 -3.04986 0
M  V30 331 N 31.0401 0.771051 -1.3745 0
M  V30 332 C 31.9871 1.88435 -1.3327 0
M  V30 333 C 32.9571 1.64914 -0.198136 0
M  V30 334 O 34.1421 1.86821 -0.387606 0
M  V30 335 C 31.2821 3.25509 -1.14622 0
M  V30 336 C 30.3951 3.60979 -2.37314 0
M  V30 337 C 29.5301 4.87265 -2.11533 0
M  V30 338 C 28.5691 5.15469 -3.30088 0
M  V30 339 N 27.7061 6.32944 -3.03853 0
M  V30 340 H 32.5461 1.91344 -2.28455 0
M  V30 341 H 30.0831 0.935466 -1.13523 0
M  V30 342 H 32.0411 4.04582 -1.01831 0
M  V30 343 H 30.6711 3.21974 -0.230837 0
M  V30 344 H 29.7231 2.76885 -2.60842 0
M  V30 345 H 31.0351 3.77759 -3.25729 0
M  V30 346 H 30.1891 5.74244 -1.95777 0
M  V30 347 H 28.9281 4.7259 -1.20457 0
M  V30 348 H 27.9331 4.26966 -3.46382 0
M  V30 349 H 29.1581 5.32052 -4.22016 0
M  V30 350 H 27.1041 6.19625 -2.15407 0
M  V30 351 H 27.0211 6.50143 -3.85812 0
M  V30 352 H 28.2891 7.22857 -2.91716 0
M  V30 353 N 32.5182 1.22032 0.997298 0
M  V30 354 C 33.7582 1.05375 1.75144 0
M  V30 355 C 34.1222 -0.404696 1.87686 0
M  V30 356 O 35.3232 -0.691998 2.5974 0
M  V30 357 C 33.5942 1.74046 3.12158 0
M  V30 358 S 35.1532 1.72745 4.03366 0
M  V30 359 H 31.9712 0.377449 0.602539 0
M  V30 360 H 34.5732 1.54902 1.19272 0
M  V30 361 H 33.2772 2.79332 3.00669 0
M  V30 362 H 32.8082 1.24731 3.73103 0
M  V30 363 H 34.8232 0.774015 4.90126 0
M  V30 364 N 33.9963 -1.19345 1.0293 0
M  V30 365 C 35.2213 -1.93538 0.745511 0
M  V30 366 C 35.6463 -1.75007 -0.689511 0
M  V30 367 O 35.0043 -1.05265 -1.47611 0
M  V30 368 C 35.0523 -3.43336 1.10239 0
M  V30 369 O 34.1563 -4.11806 0.221289 0
M  V30 370 H 33.4973 -0.604193 0.275404 0
M  V30 371 H 36.0273 -1.5141 1.37609 0
M  V30 372 H 36.0373 -3.94004 1.05947 0
M  V30 373 H 34.7123 -3.56146 2.14786 0
M  V30 374 H 33.2893 -3.715 0.322842 0
M  V30 375 N 35.4744 -0.807222 -1.35358 0
M  V30 376 C 36.7214 -0.387888 -1.9875 0
M  V30 377 C 37.0494 1.04509 -1.64037 0
M  V30 378 O 36.3044 1.73986 -0.895946 0
M  V30 379 C 36.6034 -0.519036 -3.53611 0
M  V30 380 C 36.2694 -1.91542 -4.08194 0
M  V30 381 C 34.9314 -2.29745 -4.22813 0
M  V30 382 C 37.2834 -2.82896 -4.37744 0
M  V30 383 C 34.6114 -3.58668 -4.643 0
M  V30 384 C 36.9634 -4.11265 -4.8067 0
M  V30 385 C 35.6274 -4.49466 -4.93494 0
M  V30 386 H 34.8974 -0.141938 -0.727279 0
M  V30 387 H 37.5444 -1.02814 -1.6156 0
M  V30 388 H 35.8494 0.204658 -3.91265 0
M  V30 389 H 37.5464 -0.175345 -4.00616 0
M  V30 390 H 34.1364 -1.60862 -3.97268 0
M  V30 391 H 38.3204 -2.54629 -4.26002 0
M  V30 392 H 33.5764 -3.88113 -4.72418 0
M  V30 393 H 37.7504 -4.82153 -5.02496 0
M  V30 394 H 35.3774 -5.49418 -5.25399 0
M  V30 395 N 36.9525 1.47285 -0.560781 0
M  V30 396 C 37.8625 2.33846 0.187954 0
M  V30 397 C 38.8785 1.48412 0.908293 0
M  V30 398 O 40.0545 1.81332 0.876388 0
M  V30 399 C 37.1195 3.25178 1.2025 0
M  V30 400 C 36.1805 4.26504 0.489208 0
M  V30 401 C 35.4135 5.13472 1.45542 0
M  V30 402 O 35.6365 5.02959 2.6905 0
M  V30 403 O 34.5705 5.93902 0.977963 0
M  V30 404 H 38.3965 2.99177 -0.522177 0
M  V30 405 H 35.9815 1.45903 -0.321364 0
M  V30 406 H 37.8635 3.81584 1.78805 0
M  V30 407 H 36.5385 2.6247 1.89449 0
M  V30 408 H 35.4455 3.73847 -0.137627 0
M  V30 409 H 36.7785 4.91935 -0.161399 0
M  V30 410 N 38.4306 0.297415 1.54768 0
M  V30 411 C 39.3406 -0.58983 2.27064 0
M  V30 412 C 40.3566 -1.15144 1.30453 0
M  V30 413 O 41.5326 -1.17699 1.63428 0
M  V30 414 C 38.5976 -1.74714 2.9946 0
M  V30 415 C 37.6586 -1.21997 4.11601 0
M  V30 416 C 36.8916 -2.32212 4.80535 0
M  V30 417 O 37.1146 -3.52036 4.48806 0
M  V30 418 O 36.0486 -1.99106 5.68014 0
M  V30 419 H 39.8746 -0.00348199 3.037 0
M  V30 420 H 37.4596 0.0640035 1.49263 0
M  V30 421 H 39.3416 -2.42147 3.44881 0
M  V30 422 H 38.0166 -2.32016 2.25722 0
M  V30 423 H 36.9236 -0.511458 3.70587 0
M  V30 424 H 38.2566 -0.692419 4.87305 0
M  V30 425 N 39.9087 -1.5758 0.0250728 0
M  V30 426 C 40.8717 -2.08896 -0.943139 0
M  V30 427 C 41.8717 -1.00321 -1.25668 0
M  V30 428 O 43.0617 -1.26495 -1.19769 0
M  V30 429 C 40.1937 -2.55143 -2.26086 0
M  V30 430 H 41.3867 -2.95723 -0.498775 0
M  V30 431 H 38.9397 -1.54703 -0.222888 0
M  V30 432 H 39.6747 -1.71633 -2.75159 0
M  V30 433 H 39.4597 -3.34461 -2.04641 0
M  V30 434 H 40.9497 -2.95083 -2.95492 0
M  V30 435 N 41.3868 0.248026 -1.55636 0
M  V30 436 C 42.8028 0.596483 -1.48035 0
M  V30 437 C 43.0028 1.88386 -0.715039 0
M  V30 438 O 42.0588 2.51319 -0.243944 0
M  V30 439 C 43.3718 0.700258 -2.92433 0
M  V30 440 C 44.9198 0.792659 -3.02797 0
M  V30 441 C 45.3948 0.928005 -4.485 0
M  V30 442 N 46.8858 0.992903 -4.52433 0
M  V30 443 C 47.6208 1.11687 -5.62418 0
M  V30 444 N 47.1168 1.20645 -6.82214 0
M  V30 445 N 48.9098 1.14994 -5.50212 0
M  V30 446 H 41.0608 -0.597109 -2.03834 0
M  V30 447 H 43.3238 -0.205925 -0.925364 0
M  V30 448 H 43.0298 -0.175658 -3.51261 0
M  V30 449 H 42.9038 1.57255 -3.42857 0
M  V30 450 H 45.2908 1.65903 -2.4405 0
M  V30 451 H 45.3718 -0.104762 -2.55585 0
M  V30 452 H 45.0158 0.0661971 -5.07857 0
M  V30 453 H 44.9458 1.84045 -4.93391 0
M  V30 454 H 47.4368 0.935064 -3.66149 0
M  V30 455 H 47.7498 1.30008 -7.61786 0
M  V30 456 H 46.0948 1.17605 -6.84977 0
M  V30 457 H 49.2858 1.07643 -4.55555 0
M  V30 458 H 49.4588 1.24311 -6.35965 0
M  V30 459 N 42.8649 1.48995 0.513639 0
M  V30 460 C 43.7749 1.67443 1.64317 0
M  V30 461 C 44.7909 0.556947 1.64846 0
M  V30 462 O 45.9669 0.830082 1.83498 0
M  V30 463 C 43.0319 1.72515 3.00732 0
M  V30 464 C 42.0929 2.96009 3.1093 0
M  V30 465 C 41.3259 3.00829 4.40837 0
M  V30 466 O 41.5489 2.13594 5.28898 0
M  V30 467 O 40.4829 3.93168 4.55744 0
M  V30 468 H 44.3089 2.63106 1.51687 0
M  V30 469 H 41.8939 1.32588 0.688543 0
M  V30 470 H 43.7759 1.78277 3.81831 0
M  V30 471 H 42.4509 0.800278 3.13651 0
M  V30 472 H 41.3579 2.9577 2.29065 0
M  V30 473 H 42.6909 3.87934 3.02933 0
M  V30 474 N 44.343 -0.763751 1.37857 0
M  V30 475 C 45.589 -1.52483 1.33704 0
M  V30 476 C 45.922 -1.94051 -0.0759612 0
M  V30 477 O 45.197 -1.64675 -1.03501 0
M  V30 478 C 45.48 -2.78441 2.28348 0
M  V30 479 C 45.333 -2.43075 3.78463 0
M  V30 480 C 46.652 -3.80415 2.21298 0
M  V30 481 H 43.771 -0.553169 0.487005 0
M  V30 482 H 46.413 -0.875562 1.68624 0
M  V30 483 H 44.563 -3.33842 1.987 0
M  V30 484 H 46.235 -1.93527 4.18742 0
M  V30 485 H 44.478 -1.75666 3.96641 0
M  V30 486 H 45.149 -3.33149 4.40132 0
M  V30 487 H 47.625 -3.34527 2.47449 0
M  V30 488 H 46.501 -4.66257 2.89647 0
M  V30 489 H 46.762 -4.25262 1.20849 0
M  V30 490 N 45.8211 -1.22559 -0.990812 0
M  V30 491 C 47.0681 -1.05141 -1.73065 0
M  V30 492 C 47.3961 0.413191 -1.9006 0
M  V30 493 O 46.6511 1.32257 -1.44245 0
M  V30 494 C 46.9501 -1.71011 -3.13831 0
M  V30 495 C 46.6161 -3.20911 -3.16745 0
M  V30 496 C 45.2781 -3.61812 -3.17247 0
M  V30 497 C 47.6301 -4.16846 -3.12872 0
M  V30 498 C 44.9581 -4.97127 -3.1158 0
M  V30 499 C 47.3101 -5.5214 -3.08746 0
M  V30 500 C 45.9741 -5.92419 -3.07565 0
M  V30 501 H 45.2441 -0.384738 -0.633291 0
M  V30 502 H 47.8911 -1.5235 -1.16025 0
M  V30 503 H 46.1961 -1.16133 -3.74193 0
M  V30 504 H 47.8931 -1.55023 -3.69823 0
M  V30 505 H 44.4831 -2.88344 -3.17105 0
M  V30 506 H 48.6671 -3.86263 -3.11632 0
M  V30 507 H 43.9231 -5.27562 -3.09012 0
M  V30 508 H 48.0971 -6.26201 -3.04705 0
M  V30 509 H 45.7241 -6.97236 -3.02929 0
M  V30 510 N 47.2992 1.18797 -1.03562 0
M  V30 511 C 48.2092 2.25913 -0.632505 0
M  V30 512 C 49.2252 1.70668 0.338882 0
M  V30 513 O 50.4012 2.00453 0.195076 0
M  V30 514 C 47.4662 3.467 0.00350942 0
M  V30 515 C 46.5272 4.17098 -1.01624 0
M  V30 516 C 45.7602 5.32119 -0.410478 0
M  V30 517 O 45.9832 5.64976 0.784725 0
M  V30 518 O 44.9172 5.9107 -1.13667 0
M  V30 519 H 48.7432 2.62648 -1.52478 0
M  V30 520 H 46.3282 1.25781 -0.806195 0
M  V30 521 H 48.2102 4.19878 0.35781 0
M  V30 522 H 46.8852 3.11798 0.869686 0
M  V30 523 H 45.7922 3.4601 -1.42224 0
M  V30 524 H 47.1252 4.55987 -1.85301 0
M  V30 525 N 48.7773 0.814389 1.34928 0
M  V30 526 C 49.7253 0.218424 2.31572 0
M  V30 527 C 50.7193 -0.636128 1.57002 0
M  V30 528 O 51.9253 -0.52842 1.72069 0
M  V30 529 H 48.3003 0.0518799 0.750208 0
M  V30 530 H 50.2713 1.04852 2.79372 0
M  V30 531 C 49.0203 -0.61207 3.4227 0
M  V30 532 H 48.3433 0.0361578 3.99784 0
M  V30 533 H 49.7833 -0.995317 4.12152 0
M  V30 534 C 48.2423 -1.78087 2.85984 0
M  V30 535 O 48.7723 -2.8787 2.80168 0
M  V30 536 N 46.9783 -1.59488 2.42924 0
M  V30 537 H 46.5253 -0.701874 2.47854 0
M  V30 538 H 46.4833 -2.37846 2.05613 0
M  V30 539 N 50.2554 -1.46986 0.568584 0
M  V30 540 C 51.4834 -2.0683 0.0539956 0
M  V30 541 C 51.8984 -1.41953 -1.24478 0
M  V30 542 O 51.2554 -0.519933 -1.74937 0
M  V30 543 C 51.3064 -3.61254 -0.133362 0
M  V30 544 O 51.0274 -4.237 1.11399 0
M  V30 545 C 52.5284 -4.37992 -0.683927 0
M  V30 546 H 49.7484 -0.669058 0.0510141 0
M  V30 547 H 52.2924 -1.88824 0.785234 0
M  V30 548 H 50.4474 -3.78735 -0.81477 0
M  V30 549 H 50.8614 -5.16388 0.91888 0
M  V30 550 H 52.3354 -5.46684 -0.764263 0
M  V30 551 H 52.8124 -4.05058 -1.69778 0
M  V30 552 H 53.4184 -4.25283 -0.0378494 0
M  V30 553 N 51.7335 -0.305618 -1.54608 0
M  V30 554 C 52.6435 0.57778 -2.27374 0
M  V30 555 C 53.6595 1.14451 -1.31061 0
M  V30 556 O 54.8355 1.16831 -1.6405 0
M  V30 557 C 51.9005 1.73123 -3.00382 0
M  V30 558 C 50.9615 1.19812 -4.12242 0
M  V30 559 C 50.1945 2.2966 -4.81759 0
M  V30 560 O 50.4175 3.49651 -4.50666 0
M  V30 561 O 49.3515 1.96091 -5.69062 0
M  V30 562 H 53.1775 -0.012624 -3.03697 0
M  V30 563 H 50.7625 -0.0719184 -1.49227 0
M  V30 564 H 52.6445 2.40315 -3.4616 0
M  V30 565 H 51.3195 2.30815 -2.26949 0
M  V30 566 H 50.2265 0.491798 -3.70853 0
M  V30 567 H 51.5595 0.666566 -4.87666 0
M  V30 568 N 53.2116 1.57565 -0.0334293 0
M  V30 569 C 54.6276 1.56297 0.322997 0
M  V30 570 C 54.8276 1.03945 1.7262 0
M  V30 571 O 53.8836 0.688109 2.42943 0
M  V30 572 C 55.1966 3.00232 0.167664 0
M  V30 573 C 56.7446 3.12078 0.240107 0
M  V30 574 C 57.2196 4.57859 0.113513 0
M  V30 575 N 58.7106 4.62887 0.170359 0
M  V30 576 C 59.4456 5.73319 0.0962517 0
M  V30 577 N 58.9416 6.92794 -0.0291881 0
M  V30 578 N 60.7346 5.61898 0.150551 0
M  V30 579 H 52.8856 1.89923 -0.950956 0
M  V30 580 H 55.1486 0.873824 -0.367608 0
M  V30 581 H 54.8546 3.42501 -0.799102 0
M  V30 582 H 54.7286 3.654 0.936083 0
M  V30 583 H 57.1156 2.69718 1.19733 0
M  V30 584 H 57.1966 2.49623 -0.558763 0
M  V30 585 H 56.8406 5.009 -0.840314 0
M  V30 586 H 56.7706 5.18299 0.931302 0
M  V30 587 H 59.2616 3.76954 0.26728 0
M  V30 588 H 59.5746 7.7276 -0.0789252 0
M  V30 589 H 57.9196 6.94971 -0.0640299 0
M  V30 590 H 61.1106 4.67448 0.246981 0
M  V30 591 H 61.2836 6.47938 0.0893365 0
M  V30 592 N 54.6897 -0.239769 1.55765 0
M  V30 593 C 55.9177 -0.98417 1.81994 0
M  V30 594 C 56.3327 -1.7867 0.610124 0
M  V30 595 O 55.6897 -1.77571 -0.421271 0
M  V30 596 C 55.7407 -1.91635 3.06526 0
M  V30 597 O 55.4617 -1.14629 4.22838 0
M  V30 598 C 56.9627 -2.77616 3.45607 0
M  V30 599 H 54.1827 -0.28928 0.605441 0
M  V30 600 H 56.7267 -0.260499 2.02834 0
M  V30 601 H 54.8817 -2.5942 2.87715 0
M  V30 602 H 55.2957 -1.77745 4.93464 0
M  V30 603 H 56.7697 -3.38759 4.35828 0
M  V30 604 H 57.2467 -3.4909 2.6652 0
M  V30 605 H 57.8527 -2.15271 3.66795 0
M  V30 606 N 56.1678 -1.49265 -0.50573 0
M  V30 607 C 57.3958 -1.62215 -1.28429 0
M  V30 608 C 57.8108 -0.291697 -1.86533 0
M  V30 609 O 57.1678 0.722233 -1.67601 0
M  V30 610 C 57.2188 -2.68735 -2.41793 0
M  V30 611 O 56.9398 -3.96619 -1.86078 0
M  V30 612 C 58.4408 -2.92346 -3.3324 0
M  V30 613 H 55.6608 -0.546239 -0.389697 0
M  V30 614 H 58.2048 -1.95265 -0.607609 0
M  V30 615 H 56.3598 -2.38476 -3.053 0
M  V30 616 H 56.7738 -4.55256 -2.60465 0
M  V30 617 H 58.2478 -3.70623 -4.09075 0
M  V30 618 H 58.7248 -2.02081 -3.89948 0
M  V30 619 H 59.3308 -3.24003 -2.75503 0
M  V30 620 N 57.6459 0.756429 -1.3826 0
M  V30 621 C 58.5559 1.9009 -1.37488 0
M  V30 622 C 59.5719 1.71855 -0.272366 0
M  V30 623 O 60.7479 1.94827 -0.510318 0
M  V30 624 C 57.8129 3.25421 -1.19592 0
M  V30 625 C 56.8739 3.56202 -2.39622 0
M  V30 626 C 56.1069 4.85075 -2.2257 0
M  V30 627 O 56.3299 5.57246 -1.21793 0
M  V30 628 O 55.2639 5.15269 -3.11098 0
M  V30 629 H 59.0899 1.93695 -2.33914 0
M  V30 630 H 56.6749 0.901313 -1.1915 0
M  V30 631 H 58.5569 4.06337 -1.11661 0
M  V30 632 H 57.2319 3.22634 -0.262486 0
M  V30 633 H 56.1389 2.75458 -2.53128 0
M  V30 634 H 57.4719 3.63747 -3.31586 0
M  V30 635 N 59.124 1.23083 0.984299 0
M  V30 636 C 60.371 1.06057 1.72505 0
M  V30 637 C 60.699 -0.403105 1.90277 0
M  V30 638 O 59.954 -1.3149 1.44944 0
M  V30 639 C 60.253 1.72673 3.1292 0
M  V30 640 C 59.919 3.22586 3.15038 0
M  V30 641 C 58.581 3.63489 3.15324 0
M  V30 642 C 60.933 4.185 3.10657 0
M  V30 643 C 58.261 4.98772 3.08939 0
M  V30 644 C 60.613 5.53769 3.05814 0
M  V30 645 C 59.277 5.94041 3.04419 0
M  V30 646 H 58.547 0.388091 0.631242 0
M  V30 647 H 61.194 1.52963 1.15215 0
M  V30 648 H 59.499 1.18116 3.73572 0
M  V30 649 H 61.196 1.56982 3.68996 0
M  V30 650 H 57.786 2.90022 3.15571 0
M  V30 651 H 61.97 3.87911 3.09579 0
M  V30 652 H 57.226 5.29193 3.0621 0
M  V30 653 H 61.4 6.27808 3.0138 0
M  V30 654 H 59.027 6.98833 2.99227 0
M  V30 655 N 60.6021 -1.18246 1.0419 0
M  V30 656 C 61.8481 -1.88793 0.75689 0
M  V30 657 C 62.2031 -1.78909 -0.707767 0
M  V30 658 O 61.4961 -1.1794 -1.50999 0
M  V30 659 C 61.6901 -3.38082 1.15911 0
M  V30 660 C 61.5191 -3.62496 2.66133 0
M  V30 661 C 60.2891 -3.7979 3.33298 0
M  V30 662 C 62.4871 -3.62976 3.64353 0
M  V30 663 N 60.4691 -3.91955 4.72487 0
M  V30 664 C 61.8401 -3.80869 4.89222 0
M  V30 665 C 63.8951 -3.46071 3.57965 0
M  V30 666 C 62.5981 -3.83608 6.08471 0
M  V30 667 C 64.6241 -3.50093 4.76643 0
M  V30 668 C 63.9861 -3.68484 6.00332 0
M  V30 669 H 60.0851 -0.709406 0.32904 0
M  V30 670 H 62.6691 -1.42022 1.33183 0
M  V30 671 H 60.8401 -3.83544 0.612238 0
M  V30 672 H 62.5721 -3.96202 0.824989 0
M  V30 673 H 59.3271 -3.79224 2.83701 0
M  V30 674 H 59.7511 -4.01857 5.44831 0
M  V30 675 H 64.3931 -3.30797 2.63311 0
M  V30 676 H 62.1111 -3.97669 7.0348 0
M  V30 677 H 65.6971 -3.38285 4.73344 0
M  V30 678 H 64.5771 -3.71488 6.90627 0
M  V30 679 N 62.0802 -0.821533 -1.34494 0
M  V30 680 C 63.0272 -0.240397 -2.29545 0
M  V30 681 C 63.9972 0.634031 -1.53523 0
M  V30 682 O 65.1822 0.575966 -1.81899 0
M  V30 683 C 62.3222 0.592869 -3.39969 0
M  V30 684 C 61.4352 -0.30365 -4.30932 0
M  V30 685 C 60.5702 0.539049 -5.28458 0
M  V30 686 C 59.6092 -0.356942 -6.11058 0
M  V30 687 N 58.7462 0.446603 -7.00678 0
M  V30 688 H 63.5862 -1.05632 -2.7865 0
M  V30 689 H 61.1232 -0.532413 -1.37127 0
M  V30 690 H 63.0812 1.09129 -4.02675 0
M  V30 691 H 61.7112 1.37392 -2.92102 0
M  V30 692 H 60.7632 -0.920276 -3.691 0
M  V30 693 H 62.0752 -0.992661 -4.88823 0
M  V30 694 H 61.2292 1.102 -5.96608 0
M  V30 695 H 59.9682 1.26157 -4.71101 0
M  V30 696 H 58.9732 -0.932047 -5.41842 0
M  V30 697 H 60.1982 -1.07755 -6.70497 0
M  V30 698 H 58.1442 1.15282 -6.45791 0
M  V30 699 H 58.0612 -0.184048 -7.55776 0
M  V30 700 H 59.3292 0.992352 -7.73158 0
M  V30 701 N 63.5583 1.46682 -0.576371 0
M  V30 702 C 64.4903 2.28341 0.198231 0
M  V30 703 C 65.5033 1.38141 0.861453 0
M  V30 704 O 66.6923 1.62797 0.732082 0
M  V30 705 C 63.7923 3.12986 1.29972 0
M  V30 706 C 62.9653 4.31271 0.729639 0
M  V30 707 C 62.0243 4.97363 1.71803 0
M  V30 708 O 61.0503 5.55156 1.25658 0
M  V30 709 N 62.2523 4.93796 3.05198 0
M  V30 710 H 65.0173 2.9546 -0.502324 0
M  V30 711 H 62.5783 1.56525 -0.413715 0
M  V30 712 H 64.5703 3.54066 1.96008 0
M  V30 713 H 63.1403 2.47984 1.90323 0
M  V30 714 H 62.3603 3.94052 -0.108012 0
M  V30 715 H 63.6483 5.07739 0.328438 0
M  V30 716 H 63.0463 4.48077 3.45317 0
M  V30 717 H 61.6033 5.38837 3.6674 0
M  V30 718 N 65.0364 0.313813 1.54444 0
M  V30 719 C 66.2664 -0.293491 2.04505 0
M  V30 720 C 66.6744 -1.47086 1.19005 0
M  V30 721 O 66.0174 -1.82481 0.211257 0
M  V30 722 C 66.0794 -0.800455 3.50475 0
M  V30 723 C 65.7434 0.253322 4.56297 0
M  V30 724 C 66.7404 1.08612 5.08428 0
M  V30 725 C 64.4254 0.398708 5.00715 0
M  V30 726 C 66.4194 2.05013 6.0353 0
M  V30 727 C 64.1064 1.36614 5.95634 0
M  V30 728 C 65.1044 2.19033 6.46926 0
M  V30 729 O 64.7924 3.14134 7.39983 0
M  V30 730 H 64.5244 -0.0658325 0.672787 0
M  V30 731 H 67.0784 0.455177 2.00293 0
M  V30 732 H 65.3084 -1.59987 3.52053 0
M  V30 733 H 66.9974 -1.32504 3.83663 0
M  V30 734 H 67.7634 0.984736 4.74898 0
M  V30 735 H 63.6424 -0.23289 4.60411 0
M  V30 736 H 67.1864 2.69382 6.4349 0
M  V30 737 H 63.0834 1.4682 6.28581 0
M  V30 738 H 63.8514 3.0926 7.57826 0
M  V30 739 N 66.5145 -1.57545 0.0417849 0
M  V30 740 C 67.7605 -1.92601 -0.635021 0
M  V30 741 C 68.0935 -0.919627 -1.71045 0
M  V30 742 O 67.3685 0.0557892 -1.9442 0
M  V30 743 C 67.6515 -3.38085 -1.23979 0
M  V30 744 C 67.5045 -4.49467 -0.173057 0
M  V30 745 C 68.8235 -3.83776 -2.15416 0
M  V30 746 H 65.9425 -0.700397 -0.229374 0
M  V30 747 H 68.5845 -1.89728 0.101633 0
M  V30 748 H 66.7345 -3.40664 -1.86762 0
M  V30 749 H 68.4065 -4.59018 0.458312 0
M  V30 750 H 66.6495 -4.30909 0.499996 0
M  V30 751 H 67.3205 -5.48323 -0.636054 0
M  V30 752 H 69.7965 -3.83013 -1.62605 0
M  V30 753 H 68.6725 -4.8624 -2.54679 0
M  V30 754 H 68.9335 -3.19998 -3.05047 0
M  V30 755 N 67.9926 0.231505 -1.5589 0
M  V30 756 C 69.2696 0.981096 -1.69215 0
M  V30 757 C 69.6496 2.02799 -0.586164 0
M  V30 758 O 68.9976 2.24823 0.408253 0
M  V30 759 C 69.2076 1.60054 -3.10135 0
M  V30 760 C 70.5556 2.09658 -3.69227 0
M  V30 761 O 71.5796 1.69967 -3.13033 0
M  V30 762 O 70.4386 2.8258 -4.67772 0
M  V30 763 H 67.5326 0.457653 -0.688827 0
M  V30 764 H 70.0786 0.224073 -1.68214 0
M  V30 765 H 68.8506 0.844105 -3.82087 0
M  V30 766 H 68.4736 2.42336 -3.15212 0
M  V30 767 N 69.4707 1.49531 0.497807 0
M  V30 768 C 70.7187 1.58865 1.24926 0
M  V30 769 C 71.0397 0.278721 1.92998 0
M  V30 770 O 70.3097 -0.702144 1.82885 0
M  V30 771 H 68.8897 0.585343 0.464094 0
M  V30 772 H 71.5517 1.86174 0.57666 0
M  V30 773 H 70.6477 2.38633 2.01149 0
M  V30 774 N 70.9488 -0.749086 1.3866 0
M  V30 775 C 72.2258 -1.4992 1.25632 0
M  V30 776 C 72.6058 -2.10633 -0.140317 0
M  V30 777 O 71.9538 -1.97437 -1.15025 0
M  V30 778 C 72.1638 -2.56195 2.36992 0
M  V30 779 C 73.5118 -3.22972 2.75634 0
M  V30 780 O 74.5358 -2.66502 2.36337 0
M  V30 781 O 73.3948 -4.25122 3.43415 0
M  V30 782 H 70.4888 -0.665067 0.491544 0
M  V30 783 H 73.0348 -0.784113 1.50498 0
M  V30 784 H 71.8068 -2.09612 3.30422 0
M  V30 785 H 71.4298 -3.35279 2.13714 0
M  V30 786 N 72.4269 -1.23603 -0.977757 0
M  V30 787 C 73.3589 -0.977369 -2.07317 0
M  V30 788 C 74.3719 0.0495845 -1.62724 0
M  V30 789 O 75.5609 -0.186261 -1.77526 0
M  V30 790 C 72.6609 -0.451216 -3.35883 0
M  V30 791 C 71.8339 -1.53896 -4.09432 0
M  V30 792 C 70.8929 -1.01721 -5.16274 0
M  V30 793 O 69.9189 -1.70676 -5.43009 0
M  V30 794 N 71.1209 0.153594 -5.80297 0
M  V30 795 H 73.8859 -1.92047 -2.30082 0
M  V30 796 H 71.4469 -1.14497 -1.14465 0
M  V30 797 H 73.4389 -0.0871574 -4.04606 0
M  V30 798 H 72.0089 0.397368 -3.10064 0
M  V30 799 H 71.2289 -2.07566 -3.35127 0
M  V30 800 H 72.5169 -2.27037 -4.55337 0
M  V30 801 H 71.9149 0.730323 -5.60966 0
M  V30 802 H 70.4719 0.458892 -6.50183 0
M  V30 803 N 73.905 1.17692 -1.04816 0
M  V30 804 C 75.145 1.89545 -0.764979 0
M  V30 805 C 75.509 1.78979 0.695028 0
M  V30 806 O 76.71 2.45613 1.09215 0
M  V30 807 C 74.981 3.35659 -1.22751 0
M  V30 808 S 76.54 4.25526 -1.07112 0
M  V30 809 H 73.358 0.654432 -0.27792 0
M  V30 810 H 75.96 1.42163 -1.34201 0
M  V30 811 H 74.664 3.40882 -2.28533 0
M  V30 812 H 74.195 3.88083 -0.644594 0
M  V30 813 H 76.21 4.962 0.00697508 0
M  V30 814 N 75.3831 0.828654 1.34056 0
M  V30 815 C 76.2931 0.256725 2.33191 0
M  V30 816 C 77.3091 -0.611898 1.62886 0
M  V30 817 O 78.4851 -0.51844 1.94613 0
M  V30 818 C 75.5501 -0.567238 3.42028 0
M  V30 819 C 74.6111 0.324458 4.28072 0
M  V30 820 C 73.8441 -0.460274 5.31712 0
M  V30 821 O 74.0671 -1.693 5.44696 0
M  V30 822 O 73.0011 0.160391 6.01686 0
M  V30 823 H 76.8271 1.07739 2.83947 0
M  V30 824 H 74.4121 0.59093 1.37217 0
M  V30 825 H 76.2941 -1.03582 4.08471 0
M  V30 826 H 74.9691 -1.36513 2.93506 0
M  V30 827 H 73.8761 0.840659 3.64532 0
M  V30 828 H 75.2091 1.08685 4.8005 0
M  V30 829 N 76.8612 -1.46375 0.584142 0
M  V30 830 C 78.0862 -2.07268 0.0740405 0
M  V30 831 C 78.5112 -1.42979 -1.22223 0
M  V30 832 O 77.8692 -0.514092 -1.73859 0
M  V30 833 C 77.9172 -3.60518 -0.0767769 0
M  V30 834 O 77.0212 -3.96533 -1.13292 0
M  V30 835 H 76.3622 -0.660961 0.0634524 0
M  V30 836 H 78.8922 -1.87991 0.807492 0
M  V30 837 H 78.9022 -4.07021 -0.282489 0
M  V30 838 H 77.5772 -4.06702 0.86986 0
M  V30 839 H 76.1542 -3.61738 -0.905553 0
M  V30 840 N 78.3393 -0.321999 -1.54275 0
M  V30 841 C 79.2873 0.560206 -2.25753 0
M  V30 842 C 80.2813 1.11984 -1.27106 0
M  V30 843 O 81.4873 1.06806 -1.44888 0
M  V30 844 H 77.8623 0.199304 -0.725108 0
M  V30 845 H 79.8333 -0.0649365 -2.98329 0
M  V30 846 C 78.5823 1.71023 -3.02731 0
M  V30 847 H 77.9053 1.28885 -3.78456 0
M  V30 848 H 79.3453 2.30314 -3.55993 0
M  V30 849 C 77.8043 2.62692 -2.10938 0
M  V30 850 O 78.3343 3.64364 -1.6912 0
M  V30 851 N 76.5403 2.30891 -1.76459 0
M  V30 852 H 76.0873 1.48253 -2.10663 0
M  V30 853 H 76.0453 2.92487 -1.1532 0
M  V30 854 N 79.8174 1.5752 -0.0501392 0
M  V30 855 C 81.2284 1.80271 0.485705 0
M  V30 856 C 81.5794 0.96228 1.70981 0
M  V30 857 O 80.7044 0.178578 2.15662 0
M  V30 858 C 81.2994 3.26957 0.887938 0
M  V30 859 C 79.8584 3.5063 1.36877 0
M  V30 860 C 79.0054 2.75165 0.343468 0
M  V30 861 H 81.9564 1.56281 -0.276028 0
M  V30 862 H 81.9774 3.37821 1.75093 0
M  V30 863 H 81.4894 3.881 -0.0031809 0
M  V30 864 H 79.5904 2.94766 2.27911 0
M  V30 865 H 79.7034 4.59343 1.36164 0
M  V30 866 H 78.0674 2.4127 0.816128 0
M  V30 867 H 78.8504 3.39034 -0.539548 0
M  V30 868 N 81.2955 -0.223234 1.56011 0
M  V30 869 C 82.5355 -0.954962 1.8072 0
M  V30 870 C 82.8995 -1.81598 0.623384 0
M  V30 871 O 84.1005 -2.58132 0.749745 0
M  V30 872 C 82.3715 -1.77313 3.10314 0
M  V30 873 S 83.9305 -2.56073 3.56332 0
M  V30 874 H 80.7485 -0.320812 0.634508 0
M  V30 875 H 83.3505 -0.220686 1.9425 0
M  V30 876 H 82.0545 -1.13071 3.94516 0
M  V30 877 H 81.5855 -2.54974 2.99586 0
M  V30 878 H 83.6005 -3.79619 3.19536 0
M  V30 879 N 82.7736 -1.49793 -0.48987 0
M  V30 880 C 83.7036 -1.70201 -1.59856 0
M  V30 881 C 84.6846 -0.55076 -1.60937 0
M  V30 882 O 85.8696 -0.787841 -1.77501 0
M  V30 883 C 82.9996 -1.77882 -2.98287 0
M  V30 884 C 81.9536 -2.92907 -3.12073 0
M  V30 885 C 81.2796 -2.85712 -4.51965 0
M  V30 886 C 82.5796 -4.3369 -2.91051 0
M  V30 887 H 84.2736 -2.63025 -1.43032 0
M  V30 888 H 81.8196 -1.26574 -0.686664 0
M  V30 889 H 83.7726 -1.90744 -3.75759 0
M  V30 890 H 82.4966 -0.816653 -3.16225 0
M  V30 891 H 81.1556 -2.79665 -2.37029 0
M  V30 892 H 80.8036 -1.8738 -4.66795 0
M  V30 893 H 80.5036 -3.62921 -4.62128 0
M  V30 894 H 82.0276 -3.00598 -5.31482 0
M  V30 895 H 83.4416 -4.47555 -3.58284 0
M  V30 896 H 81.8386 -5.12205 -3.12675 0
M  V30 897 H 82.9086 -4.47362 -1.87071 0
M  V30 898 N 84.2517 0.741722 -1.39055 0
M  V30 899 C 85.1997 1.87702 -1.3737 0
M  V30 900 C 86.1937 1.67427 -0.257812 0
M  V30 901 O 87.3997 1.7485 -0.427489 0
M  V30 902 H 83.7747 0.617757 -0.428812 0
M  V30 903 H 85.7457 1.86239 -2.33147 0
M  V30 904 C 84.4947 3.25315 -1.22741 0
M  V30 905 H 83.8177 3.41509 -2.07873 0
M  V30 906 H 85.2577 4.04964 -1.25618 0
M  V30 907 C 83.7167 3.36838 0.0647316 0
M  V30 908 O 84.2467 3.88073 1.03741 0
M  V30 909 N 82.4527 2.90329 0.125544 0
M  V30 910 H 81.9997 2.48823 -0.666682 0
M  V30 911 H 81.9577 2.98418 0.989639 0
M  V30 912 N 85.7298 1.2412 0.971189 0
M  V30 913 C 86.9778 1.07668 1.71032 0
M  V30 914 C 87.2988 -0.385797 1.91146 0
M  V30 915 O 86.5688 -1.27569 1.4867 0
M  V30 916 H 85.1488 0.395429 0.633755 0
M  V30 917 H 87.8108 1.55984 1.16855 0
M  V30 918 H 86.9068 1.57195 2.69622 0
M  V30 919 N 87.2079 -1.17134 1.05439 0
M  V30 920 C 88.4559 -1.87085 0.764429 0
M  V30 921 C 88.7769 -1.81584 -0.710787 0
M  V30 922 O 88.0469 -1.24349 -1.51374 0
M  V30 923 H 86.6269 -0.692627 0.279779 0
M  V30 924 H 89.2889 -1.42087 1.33406 0
M  V30 925 H 88.3849 -2.92759 1.0816 0
M  V30 926 N 88.686 -0.835752 -1.33615 0
M  V30 927 C 89.911 -0.442389 -2.02627 0
M  V30 928 C 90.336 0.947735 -1.62479 0
M  V30 929 O 89.694 1.61907 -0.815826 0
M  V30 930 C 89.742 -0.567216 -3.56111 0
M  V30 931 O 88.846 0.407799 -4.10379 0
M  V30 932 H 88.187 -0.180278 -0.639059 0
M  V30 933 H 90.717 -1.12972 -1.70583 0
M  V30 934 H 90.727 -0.447708 -4.05536 0
M  V30 935 H 89.402 -1.58103 -3.84677 0
M  V30 936 H 87.979 0.246107 -3.72087 0
M  V30 937 N 90.1641 1.46063 -0.591896 0
M  V30 938 C 91.4041 2.04228 -0.0838014 0
M  V30 939 C 91.7681 1.45231 1.25587 0
M  V30 940 O 92.9691 1.94653 1.85375 0
M  V30 941 C 91.2401 3.57389 -0.0286282 0
M  V30 942 S 92.7991 4.3678 0.420557 0
M  V30 943 H 89.6171 0.709762 -0.0419319 0
M  V30 944 H 92.2191 1.78983 -0.786465 0
M  V30 945 H 90.9231 3.97843 -1.00743 0
M  V30 946 H 90.4541 3.87185 0.69652 0
M  V30 947 H 92.4691 4.67131 1.67341 0
M  V30 948 N 91.6422 0.330177 1.54103 0
M  V30 949 C 92.5892 -0.532762 2.24567 0
M  V30 950 C 93.5592 -1.10635 1.23892 0
M  V30 951 O 94.7442 -1.14546 1.5259 0
M  V30 952 C 91.8842 -1.6845 3.01195 0
M  V30 953 C 90.9972 -1.13951 4.167 0
M  V30 954 C 90.1322 -2.25746 4.80845 0
M  V30 955 C 89.1712 -1.6853 5.88442 0
M  V30 956 N 88.3082 -2.74014 6.46421 0
M  V30 957 H 93.1482 0.0746905 2.97906 0
M  V30 958 H 90.6852 0.048632 1.4702 0
M  V30 959 H 92.6432 -2.36234 3.43874 0
M  V30 960 H 91.2732 -2.26314 2.30178 0
M  V30 961 H 90.3252 -0.35301 3.78758 0
M  V30 962 H 91.6372 -0.680892 4.94131 0
M  V30 963 H 90.7912 -3.01422 5.26526 0
M  V30 964 H 89.5302 -2.74947 4.0281 0
M  V30 965 H 88.5352 -0.913543 5.42157 0
M  V30 966 H 89.7602 -1.20198 6.68378 0
M  V30 967 H 87.7062 -3.22494 5.71256 0
M  V30 968 H 87.6232 -2.32735 7.19285 0
M  V30 969 H 88.8912 -3.49499 6.96757 0
M  V30 970 N 93.1203 -1.57491 0.0584922 0
M  V30 971 C 94.3973 -1.84346 -0.653918 0
M  V30 972 C 94.7773 -0.948355 -1.88599 0
M  V30 973 O 94.1253 -0.0112403 -2.28497 0
M  V30 974 C 94.3353 -3.34239 -1.00425 0
M  V30 975 C 95.6833 -4.01431 -1.38342 0
M  V30 976 O 96.7073 -3.38907 -1.09637 0
M  V30 977 O 95.5663 -5.11683 -1.91943 0
M  V30 978 H 92.6603 -0.761112 -0.323478 0
M  V30 979 H 95.2063 -1.6947 0.0884125 0
M  V30 980 H 93.9783 -3.91089 -0.128625 0
M  V30 981 H 93.6013 -3.54329 -1.80378 0
M  V30 982 N 94.5984 0.214957 -1.56127 0
M  V30 983 C 95.8754 0.963093 -1.70247 0
M  V30 984 C 96.2554 2.02166 -0.60764 0
M  V30 985 O 95.6034 2.25244 0.384385 0
M  V30 986 C 95.8134 1.56756 -3.11815 0
M  V30 987 C 97.1614 2.0573 -3.7143 0
M  V30 988 O 98.1854 1.66637 -3.14818 0
M  V30 989 O 97.0444 2.77603 -4.70743 0
M  V30 990 H 94.1384 0.450321 -0.693643 0
M  V30 991 H 96.6844 0.206219 -1.68442 0
M  V30 992 H 95.4564 0.803533 -3.82961 0
M  V30 993 H 95.0794 2.3898 -3.17765 0
M  V30 994 N 96.0765 1.50051 0.48192 0
M  V30 995 C 97.3255 1.59741 1.23149 0
M  V30 996 C 97.6385 0.298163 1.93314 0
M  V30 997 O 98.8445 0.273835 2.70116 0
M  V30 998 C 97.3005 2.81926 2.23708 0
M  V30 999 C 96.9085 4.18685 1.59396 0
M  V30 1000 C 98.6525 3.00956 2.99375 0
M  V30 1001 C 96.5595 5.3207 2.58178 0
M  V30 1002 H 95.4895 0.594838 0.46334 0
M  V30 1003 H 98.1405 1.76467 0.503169 0
M  V30 1004 H 96.5225 2.58736 2.99786 0
M  V30 1005 H 97.6965 4.52088 0.891811 0
M  V30 1006 H 96.0115 4.05171 0.960503 0
M  V30 1007 H 98.6085 3.82836 3.73283 0
M  V30 1008 H 98.9515 2.12258 3.58123 0
M  V30 1009 H 99.4845 3.24277 2.30411 0
M  V30 1010 H 96.2235 6.22888 2.04184 0
M  V30 1011 H 95.7435 5.03098 3.26577 0
M  V30 1012 H 97.4225 5.62196 3.20225 0
M  V30 1013 N 97.5546 -0.734337 1.39446 0
M  V30 1014 C 98.5026 -1.86971 1.38364 0
M  V30 1015 C 99.4966 -1.67288 0.266687 0
M  V30 1016 O 100.703 -1.74621 0.436755 0
M  V30 1017 H 97.0776 -0.615474 0.432082 0
M  V30 1018 H 99.0486 -1.85 2.34132 0
M  V30 1019 C 97.7976 -3.2466 1.24465 0
M  V30 1020 H 97.1206 -3.40402 2.09682 0
M  V30 1021 H 98.5606 -4.04292 1.27764 0
M  V30 1022 C 97.0196 -3.36867 -0.0468674 0
M  V30 1023 O 97.5496 -3.88618 -1.01681 0
M  V30 1024 N 95.7556 -2.90391 -0.110145 0
M  V30 1025 H 95.3026 -2.48466 0.679868 0
M  V30 1026 H 95.2606 -2.98939 -0.973799 0
M  V30 1027 N 99.0327 -1.24633 -0.964593 0
M  V30 1028 C 100.258 -1.11596 -1.74818 0
M  V30 1029 C 100.683 0.32723 -1.85232 0
M  V30 1030 O 100.041 1.23695 -1.32549 0
M  V30 1031 C 100.089 -1.76397 -3.1451 0
M  V30 1032 O 99.1927 -1.03685 -3.99153 0
M  V30 1033 H 98.5337 -0.390196 -0.537255 0
M  V30 1034 H 101.064 -1.65002 -1.20977 0
M  V30 1035 H 101.074 -1.8228 -3.65018 0
M  V30 1036 H 99.7487 -2.81401 -3.06246 0
M  V30 1037 H 98.3257 -1.05611 -3.57632 0
M  V30 1038 N 100.511 1.16574 -1.06058 0
M  V30 1039 C 101.741 1.90675 -0.795397 0
M  V30 1040 C 102.149 1.77547 0.653735 0
M  V30 1041 O 101.492 1.11611 1.45907 0
M  V30 1042 C 101.554 3.42011 -1.10764 0
M  V30 1043 C 101.218 3.78924 -2.55471 0
M  V30 1044 C 102.215 3.81042 -3.53699 0
M  V30 1045 C 99.8998 4.09626 -2.90708 0
M  V30 1046 C 101.894 4.13346 -4.85205 0
M  V30 1047 C 99.5808 4.41597 -4.22416 0
M  V30 1048 C 100.579 4.43436 -5.19474 0
M  V30 1049 O 100.267 4.74649 -6.48817 0
M  V30 1050 H 99.9988 0.611554 -0.288058 0
M  V30 1051 H 102.553 1.48711 -1.41683 0
M  V30 1052 H 100.783 3.84312 -0.429128 0
M  V30 1053 H 102.472 3.97384 -0.827077 0
M  V30 1054 H 103.238 3.57437 -3.27817 0
M  V30 1055 H 99.1168 4.07361 -2.15819 0
M  V30 1056 H 102.661 4.14696 -5.60957 0
M  V30 1057 H 98.5578 4.64667 -4.48056 0
M  V30 1058 H 99.3258 4.9247 -6.5377 0
M  V30 1059 N 101.989 0.842826 1.3317 0
M  V30 1060 C 102.899 0.281444 2.32906 0
M  V30 1061 C 103.915 -0.594587 1.63526 0
M  V30 1062 O 105.091 -0.49777 1.95152 0
M  V30 1063 C 102.156 -0.530929 3.42611 0
M  V30 1064 C 101.217 0.369843 4.27704 0
M  V30 1065 C 100.45 -0.403853 5.3217 0
M  V30 1066 O 100.673 -1.63513 5.46461 0
M  V30 1067 O 99.6069 0.224199 6.01482 0
M  V30 1068 H 103.433 1.10744 2.82789 0
M  V30 1069 H 101.018 0.60545 1.36582 0
M  V30 1070 H 102.9 -0.992437 4.09547 0
M  V30 1071 H 101.575 -1.33392 2.94938 0
M  V30 1072 H 100.482 0.879275 3.6362 0
M  V30 1073 H 101.815 1.13771 4.78871 0
M  V30 1074 N 103.467 -1.45747 0.599634 0
M  V30 1075 C 104.707 -2.04181 0.0946309 0
M  V30 1076 C 105.071 -1.45895 -1.24815 0
M  V30 1077 O 106.272 -1.95633 -1.8434 0
M  V30 1078 C 104.543 -3.57368 0.047581 0
M  V30 1079 S 106.102 -4.36997 -0.397387 0
M  V30 1080 H 102.92 -0.70953 0.0456954 0
M  V30 1081 H 105.522 -1.78564 0.795946 0
M  V30 1082 H 104.226 -3.97303 1.02852 0
M  V30 1083 H 103.757 -3.87549 -0.675977 0
M  V30 1084 H 105.772 -4.68012 -1.64862 0
M  V30 1085 N 104.945 -0.338344 -1.53925 0
M  V30 1086 C 106.191 0.252842 -2.01822 0
M  V30 1087 C 106.546 1.48612 -1.22197 0
M  V30 1088 O 105.839 1.89238 -0.299892 0
M  V30 1089 C 106.033 0.62448 -3.51902 0
M  V30 1090 C 105.862 -0.571235 -4.46057 0
M  V30 1091 C 104.632 -1.07493 -4.93734 0
M  V30 1092 C 106.83 -1.42807 -4.94076 0
M  V30 1093 N 104.812 -2.23351 -5.71828 0
M  V30 1094 C 106.183 -2.43362 -5.70241 0
M  V30 1095 C 108.238 -1.45412 -4.76193 0
M  V30 1096 C 106.941 -3.46346 -6.30426 0
M  V30 1097 C 108.967 -2.47274 -5.37224 0
M  V30 1098 C 108.329 -3.46555 -6.13253 0
M  V30 1099 H 104.428 0.0559669 -0.779995 0
M  V30 1100 H 107.012 -0.476732 -1.88773 0
M  V30 1101 H 105.183 1.32317 -3.65167 0
M  V30 1102 H 106.915 1.19841 -3.86549 0
M  V30 1103 H 103.67 -0.643848 -4.69203 0
M  V30 1104 H 104.094 -2.81834 -6.15548 0
M  V30 1105 H 108.736 -0.700171 -4.16962 0
M  V30 1106 H 106.454 -4.22638 -6.88769 0
M  V30 1107 H 110.04 -2.50109 -5.25297 0
M  V30 1108 H 108.92 -4.24083 -6.59638 0
M  V30 1109 N 106.423 1.57458 -0.0668435 0
M  V30 1110 C 107.663 1.95175 0.607116 0
M  V30 1111 C 108.027 0.946039 1.67075 0
M  V30 1112 O 109.228 1.2107 2.39991 0
M  V30 1113 C 107.499 3.37582 1.17358 0
M  V30 1114 S 109.058 3.97271 1.86336 0
M  V30 1115 H 105.876 0.682604 0.19893 0
M  V30 1116 H 108.478 1.95002 -0.139519 0
M  V30 1117 H 107.182 4.08566 0.387553 0
M  V30 1118 H 106.713 3.41288 1.95669 0
M  V30 1119 H 108.728 3.83772 3.14537 0
M  V30 1120 N 107.901 -0.206675 1.56239 0
M  V30 1121 C 109.312 -0.772383 1.69974 0
M  V30 1122 C 109.663 -1.84353 0.671436 0
M  V30 1123 O 108.788 -2.15695 -0.174491 0
M  V30 1124 C 109.383 -1.40779 3.08167 0
M  V30 1125 C 107.942 -1.92072 3.23706 0
M  V30 1126 C 107.089 -0.786347 2.65917 0
M  V30 1127 H 110.04 0.0182223 1.5869 0
M  V30 1128 H 110.061 -2.27696 3.04852 0
M  V30 1129 H 109.573 -0.627958 3.82986 0
M  V30 1130 H 107.674 -2.7281 2.53782 0
M  V30 1131 H 107.787 -2.09046 4.31087 0
M  V30 1132 H 106.151 -1.1976 2.24788 0
M  V30 1133 H 106.934 -0.0189416 3.43295 0
M  V30 1134 N 109.379 -1.50304 -0.473955 0
M  V30 1135 C 110.626 -1.6115 -1.22625 0
M  V30 1136 C 110.954 -0.310517 -1.92005 0
M  V30 1137 O 110.209 0.703419 -1.82621 0
M  V30 1138 C 110.508 -2.73938 -2.29549 0
M  V30 1139 C 110.174 -4.14519 -1.7744 0
M  V30 1140 C 108.836 -4.5277 -1.62949 0
M  V30 1141 C 111.188 -5.02392 -1.3875 0
M  V30 1142 C 108.516 -5.76639 -1.08187 0
M  V30 1143 C 110.868 -6.26805 -0.854309 0
M  V30 1144 C 109.532 -6.63861 -0.696011 0
M  V30 1145 H 108.802 -0.589691 -0.448715 0
M  V30 1146 H 111.449 -1.84228 -0.522705 0
M  V30 1147 H 109.754 -2.44937 -3.05799 0
M  V30 1148 H 111.451 -2.79534 -2.87509 0
M  V30 1149 H 108.041 -3.8434 -1.89685 0
M  V30 1150 H 112.225 -4.73474 -1.4878 0
M  V30 1151 H 107.481 -6.04027 -0.946666 0
M  V30 1152 H 111.655 -6.94258 -0.545843 0
M  V30 1153 H 109.282 -7.59722 -0.26952 0
M  V30 1154 N 110.857 0.726932 -1.39834 0
M  V30 1155 C 112.105 1.4837 -1.37225 0
M  V30 1156 C 112.426 1.94979 0.0284857 0
M  V30 1157 O 111.696 1.69555 0.981213 0
M  V30 1158 H 110.276 0.55043 -0.505011 0
M  V30 1159 H 112.938 0.862468 -1.74778 0
M  V30 1160 H 112.034 2.36198 -2.04003 0
M  V30 1161 N 112.336 1.25143 0.95797 0
M  V30 1162 C 113.583 1.09692 1.70217 0
M  V30 1163 C 113.911 -0.362654 1.91089 0
M  V30 1164 O 113.166 -1.28386 1.47701 0
M  V30 1165 C 113.465 1.79272 3.09187 0
M  V30 1166 C 113.131 3.29196 3.08125 0
M  V30 1167 C 111.793 3.70096 3.07543 0
M  V30 1168 C 114.145 4.24995 3.0171 0
M  V30 1169 C 111.473 5.05213 2.9829 0
M  V30 1170 C 113.825 5.60132 2.93999 0
M  V30 1171 C 112.489 6.00365 2.9175 0
M  V30 1172 H 111.759 0.401393 0.622868 0
M  V30 1173 H 114.406 1.55372 1.11945 0
M  V30 1174 H 112.711 1.26014 3.70982 0
M  V30 1175 H 114.408 1.64773 3.65583 0
M  V30 1176 H 110.998 2.96651 3.09348 0
M  V30 1177 H 115.182 3.9439 3.01281 0
M  V30 1178 H 110.438 5.35569 2.94916 0
M  V30 1179 H 114.612 6.3406 2.87996 0
M  V30 1180 H 112.239 7.05023 2.84336 0
M  V30 1181 N 113.814 -1.1601 1.06675 0
M  V30 1182 C 114.724 -2.24156 0.692179 0
M  V30 1183 C 115.74 -1.71507 -0.293513 0
M  V30 1184 O 116.916 -2.009 -0.141861 0
M  V30 1185 C 113.981 -3.46587 0.0884131 0
M  V30 1186 C 113.042 -4.14257 1.12646 0
M  V30 1187 C 112.275 -5.30844 0.551416 0
M  V30 1188 O 112.498 -5.66858 -0.634656 0
M  V30 1189 O 111.432 -5.87848 1.29298 0
M  V30 1190 H 115.258 -2.58513 1.59388 0
M  V30 1191 H 112.843 -1.23599 0.83926 0
M  V30 1192 H 114.725 -4.20679 -0.246361 0
M  V30 1193 H 113.4 -3.13994 -0.786712 0
M  V30 1194 H 112.307 -3.42118 1.51348 0
M  V30 1195 H 113.64 -4.50914 1.97325 0
M  V30 1196 N 115.292 -0.849877 -1.32721 0
M  V30 1197 C 116.54 -0.450032 -1.97026 0
M  V30 1198 C 116.861 0.996604 -1.67609 0
M  V30 1199 O 116.131 1.6958 -0.980786 0
M  V30 1200 H 114.711 -0.163426 -0.728904 0
M  V30 1201 H 117.373 -1.08526 -1.6189 0
M  V30 1202 H 116.469 -0.591146 -3.0645 0
M  V30 1203 N 116.77 1.45427 -0.607355 0
M  V30 1204 C 117.717 2.3053 0.111625 0
M  V30 1205 C 118.687 1.4209 0.860216 0
M  V30 1206 O 119.872 1.71019 0.845998 0
M  V30 1207 C 117.012 3.26992 1.10319 0
M  V30 1208 C 116.125 4.30535 0.355493 0
M  V30 1209 C 115.26 5.14105 1.33676 0
M  V30 1210 C 114.299 6.09376 0.576862 0
M  V30 1211 N 113.436 6.85727 1.5074 0
M  V30 1212 H 118.276 2.91477 -0.620093 0
M  V30 1213 H 115.813 1.43631 -0.317594 0
M  V30 1214 H 117.771 3.81385 1.6912 0
M  V30 1215 H 116.401 2.67799 1.80232 0
M  V30 1216 H 115.453 3.78805 -0.348023 0
M  V30 1217 H 116.765 4.98235 -0.237423 0
M  V30 1218 H 115.919 5.72897 1.99684 0
M  V30 1219 H 114.658 4.46423 1.9636 0
M  V30 1220 H 113.663 5.49715 -0.0968519 0
M  V30 1221 H 114.888 6.79085 -0.0449341 0
M  V30 1222 H 112.834 6.20735 2.12189 0
M  V30 1223 H 112.751 7.49778 0.967913 0
M  V30 1224 H 114.019 7.4906 2.15706 0
M  V30 1225 N 118.248 0.346503 1.53744 0
M  V30 1226 C 119.196 -0.52422 2.26616 0
M  V30 1227 C 120.19 -1.09948 1.28871 0
M  V30 1228 O 121.396 -1.04488 1.46568 0
M  V30 1229 H 117.771 -0.187743 0.728187 0
M  V30 1230 H 119.742 0.11239 2.98188 0
M  V30 1231 C 118.491 -1.66186 3.05414 0
M  V30 1232 H 117.814 -1.22848 3.80458 0
M  V30 1233 H 119.254 -2.24622 3.59612 0
M  V30 1234 C 117.713 -2.59302 2.1509 0
M  V30 1235 O 118.243 -3.61628 1.74895 0
M  V30 1236 N 116.449 -2.28055 1.8011 0
M  V30 1237 H 115.996 -1.44883 2.12994 0
M  V30 1238 H 115.954 -2.90615 1.19958 0
M  V30 1239 N 119.726 -1.57421 0.075193 0
M  V30 1240 C 120.966 -1.95495 -0.596757 0
M  V30 1241 C 121.33 -0.954886 -1.66571 0
M  V30 1242 O 122.531 -1.22341 -2.39345 0
M  V30 1243 C 120.802 -3.382 -1.15566 0
M  V30 1244 S 122.361 -3.98254 -1.84226 0
M  V30 1245 H 119.179 -0.683649 -0.195307 0
M  V30 1246 H 121.781 -1.94925 0.149859 0
M  V30 1247 H 120.485 -4.08766 -0.36588 0
M  V30 1248 H 120.016 -3.42321 -1.93856 0
M  V30 1249 H 122.031 -3.85435 -3.12497 0
M  V30 1250 N 121.204 0.198386 -1.56346 0
M  V30 1251 C 122.114 1.2664 -1.97483 0
M  V30 1252 C 123.13 1.49989 -0.882002 0
M  V30 1253 O 124.306 1.62668 -1.18748 0
M  V30 1254 C 121.371 2.59141 -2.30319 0
M  V30 1255 C 120.432 2.43892 -3.53292 0
M  V30 1256 C 119.665 3.70074 -3.84553 0
M  V30 1257 O 119.888 4.74101 -3.1715 0
M  V30 1258 O 118.822 3.658 -4.7799 0
M  V30 1259 H 122.648 0.947304 -2.88548 0
M  V30 1260 H 120.233 0.403123 -1.43859 0
M  V30 1261 H 122.115 3.37352 -2.5253 0
M  V30 1262 H 120.79 2.90684 -1.42423 0
M  V30 1263 H 119.697 1.63803 -3.36332 0
M  V30 1264 H 121.03 2.17282 -4.41644 0
M  V30 1265 N 122.682 1.50554 0.465978 0
M  V30 1266 C 123.612 1.72722 1.57128 0
M  V30 1267 C 124.593 0.576294 1.6004 0
M  V30 1268 O 125.778 0.81598 1.76225 0
M  V30 1269 C 122.908 1.82605 2.95419 0
M  V30 1270 C 121.862 2.97835 3.07373 0
M  V30 1271 C 121.188 2.92867 4.47363 0
M  V30 1272 C 122.488 4.38265 2.84114 0
M  V30 1273 H 124.182 2.65267 1.38829 0
M  V30 1274 H 121.728 1.2765 0.666441 0
M  V30 1275 H 123.681 1.96698 3.72677 0
M  V30 1276 H 122.405 0.866858 3.14886 0
M  V30 1277 H 121.064 2.83401 2.3255 0
M  V30 1278 H 120.712 1.94783 4.63755 0
M  V30 1279 H 120.412 3.70227 4.56296 0
M  V30 1280 H 121.936 3.09015 5.26633 0
M  V30 1281 H 123.35 4.53198 3.51118 0
M  V30 1282 H 121.747 5.17115 3.04487 0
M  V30 1283 H 122.817 4.50281 1.7993 0
M  V30 1284 N 124.16 -0.719506 1.40217 0
M  V30 1285 C 125.437 -1.47221 1.28784 0
M  V30 1286 C 125.817 -2.10883 -0.0956067 0
M  V30 1287 O 125.165 -1.99833 -1.10811 0
M  V30 1288 C 125.375 -2.5111 2.42373 0
M  V30 1289 C 126.723 -3.17053 2.82423 0
M  V30 1290 O 127.747 -2.61429 2.41937 0
M  V30 1291 O 126.606 -4.17742 3.52355 0
M  V30 1292 H 123.7 -0.654491 0.50554 0
M  V30 1293 H 126.246 -0.752014 1.52128 0
M  V30 1294 H 125.018 -2.02556 3.34793 0
M  V30 1295 H 124.641 -3.3067 2.20778 0
M  V30 1296 N 125.638 -1.25649 -0.95132 0
M  V30 1297 C 126.884 -1.10757 -1.69884 0
M  V30 1298 C 127.217 0.350061 -1.91019 0
M  V30 1299 O 126.492 1.25783 -1.48354 0
M  V30 1300 C 126.775 -1.86606 -3.07978 0
M  V30 1301 C 126.628 -3.40217 -2.94232 0
M  V30 1302 C 127.947 -1.65182 -4.07925 0
M  V30 1303 H 125.066 -0.40374 -0.616574 0
M  V30 1304 H 127.708 -1.54521 -1.10558 0
M  V30 1305 H 125.858 -1.49409 -3.58621 0
M  V30 1306 H 127.53 -3.87108 -2.50889 0
M  V30 1307 H 125.773 -3.67759 -2.30078 0
M  V30 1308 H 126.444 -3.88505 -3.92133 0
M  V30 1309 H 128.92 -1.9757 -3.66204 0
M  V30 1310 H 127.796 -2.20683 -5.02583 0
M  V30 1311 H 128.057 -0.593933 -4.38092 0
M  V30 1312 N 127.117 1.15442 -1.07289 0
M  V30 1313 C 128.345 1.90096 -0.81676 0
M  V30 1314 C 128.76 1.7798 0.629966 0
M  V30 1315 O 128.117 1.1313 1.43206 0
M  V30 1316 C 128.168 3.40466 -1.21512 0
M  V30 1317 O 127.889 3.52232 -2.60508 0
M  V30 1318 C 129.39 4.32145 -0.988198 0
M  V30 1319 H 126.61 0.602495 -0.295366 0
M  V30 1320 H 129.154 1.4627 -1.42918 0
M  V30 1321 H 127.309 3.81958 -0.647039 0
M  V30 1322 H 127.723 4.45549 -2.76742 0
M  V30 1323 H 129.197 5.36072 -1.31645 0
M  V30 1324 H 129.674 4.39135 0.0755063 0
M  V30 1325 H 130.28 3.96395 -1.54115 0
M  V30 1326 N 128.595 0.856903 1.32268 0
M  V30 1327 C 129.835 0.467705 1.98977 0
M  V30 1328 C 130.199 -0.959231 1.66321 0
M  V30 1329 O 131.4 -1.4531 2.26138 0
M  V30 1330 C 129.671 0.70256 3.50427 0
M  V30 1331 S 131.23 0.411269 4.36868 0
M  V30 1332 H 128.048 0.175121 0.689096 0
M  V30 1333 H 130.65 1.1101 1.60925 0
M  V30 1334 H 129.354 1.74012 3.71683 0
M  V30 1335 H 128.885 0.0466707 3.93372 0
M  V30 1336 H 130.9 -0.761799 4.90317 0
M  V30 1337 N 130.073 -1.45103 0.615059 0
M  V30 1338 C 131.021 -2.32331 -0.111791 0
M  V30 1339 C 132.015 -1.46409 -0.852102 0
M  V30 1340 O 133.221 -1.62849 -0.766821 0
M  V30 1341 H 129.596 -0.749993 -0.0549072 0
M  V30 1342 H 131.567 -2.91407 0.642225 0
M  V30 1343 C 130.316 -3.3015 -1.09071 0
M  V30 1344 H 129.639 -3.96265 -0.530485 0
M  V30 1345 H 131.079 -3.93898 -1.56908 0
M  V30 1346 C 129.538 -2.57875 -2.168 0
M  V30 1347 O 130.068 -2.36567 -3.24652 0
M  V30 1348 N 128.274 -2.17884 -1.92289 0
M  V30 1349 H 127.821 -2.35413 -1.04587 0
M  V30 1350 H 127.779 -1.6985 -2.64572 0
M  V30 1351 N 131.551 -0.354651 -1.53558 0
M  V30 1352 C 132.8 0.239504 -2.00273 0
M  V30 1353 C 133.113 1.50759 -1.24623 0
M  V30 1354 O 134.319 2.17968 -1.61871 0
M  V30 1355 C 132.775 0.477341 -3.5672 0
M  V30 1356 C 132.383 -0.775488 -4.41237 0
M  V30 1357 C 134.127 1.02975 -4.11821 0
M  V30 1358 C 132.034 -0.507838 -5.89216 0
M  V30 1359 H 130.964 0.0932743 -0.748208 0
M  V30 1360 H 133.615 -0.471701 -1.77334 0
M  V30 1361 H 131.997 1.24953 -3.7577 0
M  V30 1362 H 133.171 -1.54963 -4.33962 0
M  V30 1363 H 131.486 -1.25033 -3.97185 0
M  V30 1364 H 134.083 1.24513 -5.2 0
M  V30 1365 H 134.426 1.98862 -3.65731 0
M  V30 1366 H 134.959 0.317994 -3.96527 0
M  V30 1367 H 131.698 -1.43674 -6.39561 0
M  V30 1368 H 131.218 0.228011 -5.99366 0
M  V30 1369 H 132.897 -0.129238 -6.46871 0
M  V30 1370 N 133.029 1.57378 -0.0835403 0
M  V30 1371 C 133.976 2.13384 0.879539 0
M  V30 1372 C 134.946 1.04936 1.28754 0
M  V30 1373 O 136.131 1.32662 1.37133 0
M  V30 1374 C 133.271 2.70932 2.13752 0
M  V30 1375 C 132.384 3.93575 1.7811 0
M  V30 1376 C 131.519 4.39326 2.98607 0
M  V30 1377 C 130.558 5.54587 2.59037 0
M  V30 1378 N 129.695 5.95243 3.72331 0
M  V30 1379 H 134.535 2.9537 0.395076 0
M  V30 1380 H 132.072 1.45953 0.183349 0
M  V30 1381 H 134.03 3.02411 2.87408 0
M  V30 1382 H 132.66 1.91693 2.59718 0
M  V30 1383 H 131.712 3.68483 0.94469 0
M  V30 1384 H 133.024 4.77258 1.45005 0
M  V30 1385 H 132.178 4.72528 3.80529 0
M  V30 1386 H 130.917 3.5452 3.34913 0
M  V30 1387 H 129.922 5.21024 1.75539 0
M  V30 1388 H 131.147 6.41133 2.23887 0
M  V30 1389 H 129.093 5.13385 4.08378 0
M  V30 1390 H 129.01 6.73694 3.43034 0
M  V30 1391 H 130.278 6.33072 4.54797 0
M  V30 1392 N 134.507 -0.190092 1.56449 0
M  V30 1393 C 135.455 -1.25501 1.95837 0
M  V30 1394 C 136.449 -1.4685 0.844485 0
M  V30 1395 O 137.655 -1.47651 1.02952 0
M  V30 1396 H 134.03 -0.421447 0.622805 0
M  V30 1397 H 136.001 -0.895821 2.84636 0
M  V30 1398 C 134.75 -2.59124 2.31841 0
M  V30 1399 H 134.073 -2.43514 3.17082 0
M  V30 1400 H 135.513 -3.32371 2.6326 0
M  V30 1401 C 133.972 -3.16488 1.15486 0
M  V30 1402 O 134.502 -3.99365 0.432535 0
M  V30 1403 N 132.708 -2.75305 0.930349 0
M  V30 1404 H 132.255 -2.08013 1.51948 0
M  V30 1405 H 132.213 -3.14024 0.153634 0
M  V30 1406 N 135.985 -1.50799 -0.457987 0
M  V30 1407 C 137.233 -1.62121 -1.2067 0
M  V30 1408 C 137.554 -0.329793 -1.92191 0
M  V30 1409 O 136.824 0.653409 -1.84682 0
M  V30 1410 H 135.404 -0.597441 -0.448411 0
M  V30 1411 H 138.066 -1.87637 -0.527096 0
M  V30 1412 H 137.162 -2.43882 -1.94751 0
M  V30 1413 N 137.463 0.71206 -1.40597 0
M  V30 1414 C 138.879 1.02058 -1.22704 0
M  V30 1415 C 139.079 2.01228 -0.104729 0
M  V30 1416 O 138.135 2.4674 0.53624 0
M  V30 1417 C 139.448 1.56094 -2.57012 0
M  V30 1418 C 140.996 1.6806 -2.64054 0
M  V30 1419 C 141.471 2.25501 -3.9864 0
M  V30 1420 N 142.962 2.32882 -4.004 0
M  V30 1421 C 143.697 2.78317 -5.01325 0
M  V30 1422 N 143.193 3.23478 -6.12645 0
M  V30 1423 N 144.986 2.77733 -4.88693 0
M  V30 1424 H 137.137 0.0547896 -2.12329 0
M  V30 1425 H 139.4 0.0869027 -0.944008 0
M  V30 1426 H 139.106 0.906865 -3.39807 0
M  V30 1427 H 138.98 2.54564 -2.78347 0
M  V30 1428 H 141.367 2.32583 -1.81629 0
M  V30 1429 H 141.448 0.681802 -2.46546 0
M  V30 1430 H 141.092 1.61598 -4.81506 0
M  V30 1431 H 141.022 3.26102 -4.13479 0
M  V30 1432 H 143.513 2.00991 -3.20017 0
M  V30 1433 H 143.826 3.56725 -6.85542 0
M  V30 1434 H 142.171 3.21429 -6.16205 0
M  V30 1435 H 145.362 2.4179 -4.00818 0
M  V30 1436 H 145.535 3.12826 -5.67489 0
M  V30 1437 N 138.941 1.26152 0.944643 0
M  V30 1438 C 140.181 1.12708 1.70517 0
M  V30 1439 C 140.545 -0.324727 1.89234 0
M  V30 1440 O 141.746 -0.581211 2.62441 0
M  V30 1441 C 140.017 1.8713 3.04495 0
M  V30 1442 S 141.576 1.89698 3.95677 0
M  V30 1443 H 138.394 0.402665 0.585988 0
M  V30 1444 H 140.996 1.59821 1.12594 0
M  V30 1445 H 139.7 2.91833 2.88551 0
M  V30 1446 H 139.231 1.40444 3.67477 0
M  V30 1447 H 141.246 0.981198 4.86402 0
M  V30 1448 N 140.419 -1.14872 1.07899 0
M  V30 1449 C 141.329 -2.2341 0.715915 0
M  V30 1450 C 142.345 -1.71808 -0.275306 0
M  V30 1451 O 143.521 -2.01039 -0.120545 0
M  V30 1452 C 140.586 -3.46474 0.125168 0
M  V30 1453 C 139.647 -4.13039 1.17034 0
M  V30 1454 C 138.88 -5.30229 0.607688 0
M  V30 1455 O 139.103 -5.675 -0.574497 0
M  V30 1456 O 138.037 -5.86444 1.35526 0
M  V30 1457 H 141.863 -2.56808 1.62121 0
M  V30 1458 H 139.448 -1.22702 0.852322 0
M  V30 1459 H 141.33 -4.20917 -0.201729 0
M  V30 1460 H 140.005 -3.14811 -0.753364 0
M  V30 1461 H 138.912 -3.40493 1.54968 0
M  V30 1462 H 140.245 -4.48796 2.02097 0
M  V30 1463 N 141.898 -0.863906 -1.31812 0
M  V30 1464 C 142.83 -0.272485 -2.27575 0
M  V30 1465 C 143.843 0.56104 -1.52827 0
M  V30 1466 O 145.032 0.384021 -1.7432 0
M  V30 1467 C 142.132 0.63283 -3.32939 0
M  V30 1468 C 141.305 -0.166902 -4.37081 0
M  V30 1469 C 140.364 0.665608 -5.21973 0
M  V30 1470 O 139.39 0.0958091 -5.69119 0
M  V30 1471 N 140.592 1.9787 -5.45736 0
M  V30 1472 H 143.357 -1.0954 -2.78964 0
M  V30 1473 H 140.918 -0.724791 -1.4477 0
M  V30 1474 H 142.91 1.19532 -3.86645 0
M  V30 1475 H 141.48 1.35642 -2.81638 0
M  V30 1476 H 140.7 -0.910838 -3.83533 0
M  V30 1477 H 141.988 -0.715874 -5.03739 0
M  V30 1478 H 141.386 2.46484 -5.09178 0
M  V30 1479 H 139.943 2.48911 -6.024 0
M  V30 1480 N 143.376 1.44774 -0.622745 0
M  V30 1481 C 144.623 2.02121 -0.1239 0
M  V30 1482 C 144.951 1.48915 1.25118 0
M  V30 1483 O 144.206 0.660045 1.84233 0
M  V30 1484 C 144.505 3.57364 -0.0508323 0
M  V30 1485 C 144.171 4.29787 -1.36358 0
M  V30 1486 C 142.833 4.4929 -1.72314 0
M  V30 1487 C 145.185 4.71062 -2.23048 0
M  V30 1488 C 142.513 5.07325 -2.94682 0
M  V30 1489 C 144.865 5.30452 -3.44679 0
M  V30 1490 C 143.529 5.48175 -3.80868 0
M  V30 1491 H 142.799 0.739612 -0.0453381 0
M  V30 1492 H 145.446 1.73648 -0.807389 0
M  V30 1493 H 143.751 3.85202 0.715991 0
M  V30 1494 H 145.448 3.99456 0.351533 0
M  V30 1495 H 142.038 4.14932 -1.07375 0
M  V30 1496 H 146.222 4.55715 -1.96565 0
M  V30 1497 H 141.478 5.19235 -3.22809 0
M  V30 1498 H 145.652 5.61385 -4.12092 0
M  V30 1499 H 143.279 5.92912 -4.75773 0
M  V30 1500 N 144.854 0.36279 1.53368 0
M  V30 1501 C 146.094 -0.227882 2.03126 0
M  V30 1502 C 146.458 -1.4622 1.24434 0
M  V30 1503 O 147.659 -2.12831 1.64184 0
M  V30 1504 C 145.93 -0.515427 3.53664 0
M  V30 1505 S 147.489 -1.08017 4.25297 0
M  V30 1506 H 144.307 -0.0665377 0.70788 0
M  V30 1507 H 146.909 0.50501 1.88865 0
M  V30 1508 H 145.613 0.390436 4.08539 0
M  V30 1509 H 145.144 -1.27747 3.72081 0
M  V30 1510 H 147.159 -2.36462 4.36234 0
M  V30 1511 N 146.332 -1.57332 0.0918853 0
M  V30 1512 C 147.279 -2.13847 -0.868211 0
M  V30 1513 C 148.249 -1.05618 -1.28196 0
M  V30 1514 O 149.434 -1.33387 -1.36427 0
M  V30 1515 C 146.574 -2.72062 -2.12312 0
M  V30 1516 C 145.687 -3.94514 -1.7602 0
M  V30 1517 C 144.822 -4.40903 -2.96273 0
M  V30 1518 C 143.861 -5.55953 -2.56092 0
M  V30 1519 N 142.998 -5.97209 -3.69169 0
M  V30 1520 H 147.838 -2.95575 -0.379406 0
M  V30 1521 H 145.375 -1.46048 -0.175606 0
M  V30 1522 H 147.333 -3.03931 -2.858 0
M  V30 1523 H 145.963 -1.93068 -2.58698 0
M  V30 1524 H 145.015 -3.68979 -0.925135 0
M  V30 1525 H 146.327 -4.7802 -1.42472 0
M  V30 1526 H 145.481 -4.74539 -3.78018 0
M  V30 1527 H 144.22 -3.56291 -3.33029 0
M  V30 1528 H 143.225 -5.21948 -1.72773 0
M  V30 1529 H 144.45 -6.42311 -2.20484 0
M  V30 1530 H 142.396 -5.15543 -4.05649 0
M  V30 1531 H 142.313 -6.75504 -3.39456 0
M  V30 1532 H 143.581 -6.35475 -4.51434 0
M  V30 1533 N 147.81 0.181792 -1.56548 0
M  V30 1534 C 148.758 1.24461 -1.965 0
M  V30 1535 C 149.752 1.464 -0.852261 0
M  V30 1536 O 150.958 1.47103 -1.03733 0
M  V30 1537 H 147.333 0.418138 -0.625031 0
M  V30 1538 H 149.304 0.880714 -2.85107 0
M  V30 1539 C 148.053 2.57891 -2.33212 0
M  V30 1540 H 147.376 2.41829 -3.18369 0
M  V30 1541 H 148.816 3.3097 -2.65019 0
M  V30 1542 C 147.275 3.15871 -1.17163 0
M  V30 1543 O 147.805 3.9913 -0.453708 0
M  V30 1544 N 146.011 2.74808 -0.944936 0
M  V30 1545 H 145.558 2.07205 -1.53049 0
M  V30 1546 H 145.516 3.13939 -0.170286 0
M  V30 1547 N 149.288 1.51039 0.449983 0
M  V30 1548 C 150.513 1.6715 1.22783 0
M  V30 1549 C 150.938 0.363081 1.84563 0
M  V30 1550 O 150.296 -0.675433 1.68249 0
M  V30 1551 C 150.344 2.77985 2.29689 0
M  V30 1552 O 149.448 2.40707 3.34864 0
M  V30 1553 H 148.789 0.557746 0.360299 0
M  V30 1554 H 151.319 1.97535 0.533005 0
M  V30 1555 H 151.329 3.01693 2.74673 0
M  V30 1556 H 150.004 3.72935 1.84098 0
M  V30 1557 H 148.581 2.27523 2.95445 0
M  V30 1558 N 150.766 -0.704594 1.40972 0
M  V30 1559 C 151.729 -1.80035 1.41845 0
M  V30 1560 C 152.729 -1.57774 0.310474 0
M  V30 1561 O 153.919 -1.64613 0.56992 0
M  V30 1562 C 151.051 -3.18284 1.22098 0
M  V30 1563 H 152.244 -1.80658 2.3938 0
M  V30 1564 H 149.797 -0.911329 1.26982 0
M  V30 1565 H 150.532 -3.23306 0.253672 0
M  V30 1566 H 150.317 -3.35843 2.02366 0
M  V30 1567 H 151.807 -3.98289 1.25522 0
M  V30 1568 N 152.244 -1.26651 -0.937939 0
M  V30 1569 C 153.521 -1.0313 -1.66204 0
M  V30 1570 C 153.901 0.437256 -2.06522 0
M  V30 1571 O 153.249 1.41831 -1.79154 0
M  V30 1572 C 153.459 -1.98314 -2.87181 0
M  V30 1573 C 154.807 -2.27107 -3.58758 0
M  V30 1574 O 155.831 -1.96205 -2.97291 0
M  V30 1575 O 154.69 -2.79736 -4.69479 0
M  V30 1576 H 151.784 -0.392384 -0.727986 0
M  V30 1577 H 154.33 -1.37874 -0.989382 0
M  V30 1578 H 153.102 -2.97399 -2.54302 0
M  V30 1579 H 152.725 -1.64068 -3.6217 0
M  V30 1580 N 153.722 1.14298 -1.08507 0
M  V30 1581 C 154.67 2.21483 -0.710483 0
M  V30 1582 C 155.664 1.66998 0.284234 0
M  V30 1583 O 156.87 1.79401 0.146692 0
M  V30 1584 H 153.245 0.721578 -0.211729 0
M  V30 1585 H 155.216 2.50348 -1.62384 0
M  V30 1586 C 153.965 3.4743 -0.137007 0
M  V30 1587 H 153.288 3.89686 -0.893592 0
M  V30 1588 H 154.728 4.2391 0.0872789 0
M  V30 1589 C 153.187 3.17548 1.12538 0
M  V30 1590 O 153.717 3.35437 2.21009 0
M  V30 1591 N 151.923 2.71499 1.03617 0
M  V30 1592 H 151.47 2.57143 0.153403 0
M  V30 1593 H 151.428 2.51881 1.88158 0
M  V30 1594 N 155.201 0.870884 1.31352 0
M  V30 1595 C 156.148 0.325425 2.28494 0
M  V30 1596 C 157.118 -0.576615 1.5577 0
M  V30 1597 O 158.303 -0.508059 1.83911 0
M  V30 1598 C 155.443 -0.466283 3.41935 0
M  V30 1599 C 154.556 0.463378 4.29508 0
M  V30 1600 C 153.691 -0.342544 5.30094 0
M  V30 1601 C 152.73 0.583486 6.09313 0
M  V30 1602 N 151.867 -0.186244 7.01853 0
M  V30 1603 H 156.707 1.15901 2.74538 0
M  V30 1604 H 154.244 0.58294 1.35056 0
M  V30 1605 H 156.202 -0.941085 4.06447 0
M  V30 1606 H 154.832 -1.26456 2.97 0
M  V30 1607 H 153.884 1.05663 3.65431 0
M  V30 1608 H 155.196 1.1734 4.84802 0
M  V30 1609 H 154.35 -0.879816 6.00287 0
M  V30 1610 H 153.089 -1.08585 4.75458 0
M  V30 1611 H 152.094 1.13251 5.3801 0
M  V30 1612 H 153.319 1.32566 6.66035 0
M  V30 1613 H 151.265 -0.912348 6.49625 0
M  V30 1614 H 151.182 0.464422 7.54572 0
M  V30 1615 H 152.45 -0.704716 7.76308 0
M  V30 1616 N 156.679 -1.44442 0.630414 0
M  V30 1617 C 157.925 -2.02351 0.134816 0
M  V30 1618 C 158.258 -1.4947 -1.23986 0
M  V30 1619 O 157.533 -0.678475 -1.82283 0
M  V30 1620 C 157.816 -3.59898 0.120707 0
M  V30 1621 C 157.669 -4.23063 1.52767 0
M  V30 1622 C 158.988 -4.36585 -0.555127 0
M  V30 1623 H 156.107 -0.73527 0.0504646 0
M  V30 1624 H 158.749 -1.72022 0.806751 0
M  V30 1625 H 156.899 -3.85868 -0.451477 0
M  V30 1626 H 158.571 -4.08202 2.14869 0
M  V30 1627 H 156.814 -3.80586 2.08175 0
M  V30 1628 H 157.485 -5.32071 1.46984 0
M  V30 1629 H 159.961 -4.16044 -0.0685429 0
M  V30 1630 H 158.837 -5.46294 -0.534185 0
M  V30 1631 H 159.098 -4.11138 -1.62535 0
M  V30 1632 N 158.157 -0.370918 -1.53173 0
M  V30 1633 C 159.403 0.217423 -2.01631 0
M  V30 1634 C 159.736 1.47983 -1.25756 0
M  V30 1635 O 159.011 1.91274 -0.352764 0
M  V30 1636 C 159.294 0.503982 -3.56556 0
M  V30 1637 C 159.147 -0.77243 -4.43118 0
M  V30 1638 C 160.466 1.30234 -4.20389 0
M  V30 1639 H 157.585 0.0775486 -0.732909 0
M  V30 1640 H 160.227 -0.496863 -1.83388 0
M  V30 1641 H 158.377 1.11248 -3.72231 0
M  V30 1642 H 160.049 -1.4098 -4.39229 0
M  V30 1643 H 158.292 -1.39167 -4.10871 0
M  V30 1644 H 158.963 -0.526815 -5.4948 0
M  V30 1645 H 161.439 0.787546 -4.08579 0
M  V30 1646 H 160.315 1.47158 -5.28806 0
M  V30 1647 H 160.576 2.31237 -3.76805 0
M  V30 1648 N 159.635 1.57281 -0.100228 0
M  V30 1649 C 160.875 1.96419 0.56558 0
M  V30 1650 C 161.239 0.981265 1.65031 0
M  V30 1651 O 162.44 1.26133 2.37369 0
M  V30 1652 C 160.711 3.39996 1.10171 0
M  V30 1653 S 162.27 4.01134 1.77867 0
M  V30 1654 H 159.088 0.68667 0.184406 0
M  V30 1655 H 161.69 1.94662 -0.180851 0
M  V30 1656 H 160.394 4.09296 0.300803 0
M  V30 1657 H 159.925 3.45361 1.88385 0
M  V30 1658 H 161.94 3.90358 3.06326 0
M  V30 1659 N 161.113 -0.173488 1.56642 0
M  V30 1660 C 162.338 -0.910149 1.86363 0
M  V30 1661 C 162.763 -1.75132 0.686318 0
M  V30 1662 O 162.121 -1.77595 -0.364643 0
M  V30 1663 C 162.169 -1.76447 3.14482 0
M  V30 1664 O 161.273 -2.86584 2.96553 0
M  V30 1665 H 160.614 -0.255086 0.613047 0
M  V30 1666 H 163.144 -0.172283 2.03873 0
M  V30 1667 H 163.154 -2.16483 3.45831 0
M  V30 1668 H 161.829 -1.14658 3.99783 0
M  V30 1669 H 160.406 -2.50146 2.76553 0
M  V30 1670 N 162.591 -1.51276 -0.441967 0
M  V30 1671 C 163.831 -1.65372 -1.20132 0
M  V30 1672 C 164.195 -0.359871 -1.88597 0
M  V30 1673 O 165.396 -0.376551 -2.66149 0
M  V30 1674 C 163.667 -2.8207 -2.1948 0
M  V30 1675 S 165.226 -3.16467 -3.03964 0
M  V30 1676 H 162.044 -0.582669 -0.407453 0
M  V30 1677 H 164.646 -1.89166 -0.493609 0
M  V30 1678 H 163.35 -3.74523 -1.67812 0
M  V30 1679 H 162.881 -2.6045 -2.94838 0
M  V30 1680 H 164.896 -2.62543 -4.21053 0
M  V30 1681 N 164.069 0.697108 -1.41344 0
M  V30 1682 C 165.297 1.48593 -1.43972 0
M  V30 1683 C 165.712 1.88747 -0.0445612 0
M  V30 1684 O 165.069 1.56682 0.935785 0
M  V30 1685 C 165.12 2.74946 -2.34706 0
M  V30 1686 O 164.841 2.36484 -3.68791 0
M  V30 1687 C 166.342 3.687 -2.46121 0
M  V30 1688 H 163.562 0.457964 -0.490418 0
M  V30 1689 H 166.106 0.858429 -1.8561 0
M  V30 1690 H 164.261 3.33937 -1.9638 0
M  V30 1691 H 164.675 3.17918 -4.17167 0
M  V30 1692 H 166.149 4.54145 -3.13777 0
M  V30 1693 H 166.626 4.13081 -1.49199 0
M  V30 1694 H 167.232 3.15613 -2.85076 0
M  V30 1695 N 165.547 1.27147 0.931209 0
M  V30 1696 C 166.457 1.11372 2.06478 0
M  V30 1697 C 167.473 0.044645 1.73943 0
M  V30 1698 O 168.649 0.250417 1.99837 0
M  V30 1699 C 165.714 0.758838 3.38294 0
M  V30 1700 C 164.775 1.90841 3.84549 0
M  V30 1701 C 164.008 1.57036 5.10074 0
M  V30 1702 O 164.231 0.476645 5.68405 0
M  V30 1703 O 163.165 2.40839 5.51616 0
M  V30 1704 H 166.991 2.06493 2.22698 0
M  V30 1705 H 164.576 1.06301 1.04978 0
M  V30 1706 H 166.458 0.574098 4.17471 0
M  V30 1707 H 165.133 -0.162879 3.2329 0
M  V30 1708 H 164.04 2.14819 3.06274 0
M  V30 1709 H 165.373 2.81021 4.04089 0
M  V30 1710 N 167.025 -1.13721 1.09112 0
M  V30 1711 C 168.273 -1.84559 0.823562 0
M  V30 1712 C 168.594 -1.83754 -0.652658 0
M  V30 1713 O 167.864 -1.29102 -1.47342 0
M  V30 1714 H 166.444 -0.683376 0.301673 0
M  V30 1715 H 169.106 -1.37771 1.37859 0
M  V30 1716 H 168.202 -2.8917 1.17419 0
M  V30 1717 N 168.503 -0.877838 -1.30888 0
M  V30 1718 C 169.733 -0.506678 -2.00291 0
M  V30 1719 C 170.141 0.907449 -1.66018 0
M  V30 1720 O 169.484 1.60719 -0.88967 0
M  V30 1721 C 169.546 -0.59323 -3.54572 0
M  V30 1722 C 169.21 -1.97038 -4.12341 0
M  V30 1723 C 170.207 -2.93889 -4.28865 0
M  V30 1724 C 167.892 -2.27383 -4.47886 0
M  V30 1725 C 169.886 -4.19224 -4.80136 0
M  V30 1726 C 167.573 -3.52965 -4.98857 0
M  V30 1727 C 168.571 -4.48701 -5.14934 0
M  V30 1728 O 168.259 -5.72056 -5.64808 0
M  V30 1729 H 167.991 -0.1951 -0.647234 0
M  V30 1730 H 170.545 -1.18301 -1.6791 0
M  V30 1731 H 168.775 0.140057 -3.86446 0
M  V30 1732 H 170.464 -0.234372 -4.05223 0
M  V30 1733 H 171.23 -2.71756 -4.01714 0
M  V30 1734 H 167.109 -1.53639 -4.34645 0
M  V30 1735 H 170.653 -4.93956 -4.92599 0
M  V30 1736 H 166.55 -3.74939 -5.25443 0
M  V30 1737 H 167.318 -5.74337 -5.83163 0
M  V30 1738 N 169.982 1.44106 -0.638065 0
M  V30 1739 C 171.398 1.56672 -0.304286 0
M  V30 1740 C 171.598 1.6244 1.19228 0
M  V30 1741 O 170.654 1.57121 1.9766 0
M  V30 1742 C 171.967 2.83503 -1.00231 0
M  V30 1743 C 173.515 2.97226 -0.981116 0
M  V30 1744 C 173.99 4.26868 -1.65974 0
M  V30 1745 N 175.481 4.33698 -1.62666 0
M  V30 1746 C 176.216 5.32745 -2.12063 0
M  V30 1747 N 175.712 6.38157 -2.6968 0
M  V30 1748 N 177.505 5.24299 -2.02651 0
M  V30 1749 H 169.656 1.38605 -1.60942 0
M  V30 1750 H 171.919 0.664661 -0.675965 0
M  V30 1751 H 171.625 2.85251 -2.0573 0
M  V30 1752 H 171.499 3.73251 -0.54439 0
M  V30 1753 H 173.886 2.95027 0.0654188 0
M  V30 1754 H 173.967 2.08808 -1.47759 0
M  V30 1755 H 173.611 4.29826 -2.70576 0
M  V30 1756 H 173.541 5.14156 -1.13804 0
M  V30 1757 H 176.032 3.58138 -1.20606 0
M  V30 1758 H 176.345 7.10029 -3.05087 0
M  V30 1759 H 174.69 6.38823 -2.73734 0
M  V30 1760 H 177.881 4.4086 -1.57353 0
M  V30 1761 H 178.054 6.01334 -2.41457 0
M  V30 1762 N 171.46 0.379036 1.52974 0
M  V30 1763 C 172.39 -0.452706 2.29069 0
M  V30 1764 C 173.371 -1.07237 1.32039 0
M  V30 1765 O 174.556 -1.08708 1.60923 0
M  V30 1766 C 171.686 -1.5856 3.08992 0
M  V30 1767 C 170.64 -1.0925 4.13822 0
M  V30 1768 C 169.966 -2.31668 4.81907 0
M  V30 1769 C 171.266 -0.167702 5.22031 0
M  V30 1770 H 172.96 0.182181 2.98845 0
M  V30 1771 H 170.506 0.0890592 1.43724 0
M  V30 1772 H 172.459 -2.1742 3.6098 0
M  V30 1773 H 171.183 -2.24792 2.36931 0
M  V30 1774 H 169.842 -0.526494 3.628 0
M  V30 1775 H 169.49 -2.96386 4.06404 0
M  V30 1776 H 169.19 -1.9934 5.52754 0
M  V30 1777 H 170.714 -2.91189 5.36695 0
M  V30 1778 H 172.128 -0.664186 5.6944 0
M  V30 1779 H 170.525 0.0653265 6.00064 0
M  V30 1780 H 171.595 0.786347 4.78482 0
M  V30 1781 N 172.938 -1.57226 0.108567 0
M  V30 1782 C 173.901 -2.13602 -0.831082 0
M  V30 1783 C 174.901 -1.06841 -1.20173 0
M  V30 1784 O 176.091 -1.32666 -1.12895 0
M  V30 1785 C 173.223 -2.66769 -2.12243 0
M  V30 1786 H 174.416 -2.97951 -0.341317 0
M  V30 1787 H 171.969 -1.55667 -0.14057 0
M  V30 1788 H 172.704 -1.85977 -2.65675 0
M  V30 1789 H 172.489 -3.44839 -1.86625 0
M  V30 1790 H 173.979 -3.10332 -2.79435 0
M  V30 1791 N 174.416 0.165178 -1.56732 0
M  V30 1792 C 175.326 1.22423 -2.00125 0
M  V30 1793 C 176.342 1.48084 -0.913619 0
M  V30 1794 O 177.518 1.60112 -1.22172 0
M  V30 1795 C 174.583 2.54197 -2.35764 0
M  V30 1796 C 173.644 2.36343 -3.58386 0
M  V30 1797 C 172.877 3.61834 -3.92316 0
M  V30 1798 O 173.1 4.67267 -3.27135 0
M  V30 1799 O 172.034 3.55579 -4.85641 0
M  V30 1800 H 175.86 0.885886 -2.90492 0
M  V30 1801 H 173.445 0.372518 -1.44681 0
M  V30 1802 H 175.327 3.3192 -2.59629 0
M  V30 1803 H 174.002 2.87598 -1.48557 0
M  V30 1804 H 172.909 1.56632 -3.39731 0
M  V30 1805 H 174.242 2.07865 -4.46154 0
M  V30 1806 N 175.894 1.51508 0.433938 0
M  V30 1807 C 176.842 1.73646 1.54757 0
M  V30 1808 C 177.836 0.602854 1.5831 0
M  V30 1809 O 179.042 0.784318 1.62014 0
M  V30 1810 H 175.417 0.548718 0.51421 0
M  V30 1811 H 177.388 2.66991 1.33261 0
M  V30 1812 C 176.137 1.88172 2.92381 0
M  V30 1813 H 175.46 2.74808 2.90381 0
M  V30 1814 H 176.9 2.07672 3.6966 0
M  V30 1815 C 175.359 0.64239 3.30719 0
M  V30 1816 O 175.889 -0.201362 4.01195 0
M  V30 1817 N 174.095 0.485489 2.86516 0
M  V30 1818 H 173.642 1.17318 2.29334 0
M  V30 1819 H 173.6 -0.342482 3.12529 0
M  V30 1820 N 177.372 -0.689602 1.41712 0
M  V30 1821 C 178.304 -1.815 1.39966 0
M  V30 1822 C 179.317 -1.59995 0.300917 0
M  V30 1823 O 180.506 -1.69387 0.563039 0
M  V30 1824 C 177.606 -3.18364 1.16179 0
M  V30 1825 C 176.779 -3.66847 2.38206 0
M  V30 1826 C 175.838 -4.82398 2.10186 0
M  V30 1827 O 174.864 -4.93706 2.83272 0
M  V30 1828 N 176.066 -5.70064 1.0958 0
M  V30 1829 H 178.831 -1.83488 2.36965 0
M  V30 1830 H 176.392 -0.872149 1.36401 0
M  V30 1831 H 178.384 -3.93301 0.953756 0
M  V30 1832 H 176.954 -3.11365 0.27756 0
M  V30 1833 H 176.174 -2.82751 2.74673 0
M  V30 1834 H 177.462 -3.95978 3.19498 0
M  V30 1835 H 176.86 -5.63565 0.491019 0
M  V30 1836 H 175.417 -6.44874 0.947656 0
M  V30 1837 N 178.85 -1.27639 -0.924453 0
M  V30 1838 C 179.797 -1.10644 -2.0255 0
M  V30 1839 C 180.767 -0.00658438 -1.66099 0
M  V30 1840 O 181.952 -0.16952 -1.90045 0
M  V30 1841 C 179.092 -0.76309 -3.36557 0
M  V30 1842 C 178.205 -1.94091 -3.85944 0
M  V30 1843 C 177.34 -1.53914 -5.08413 0
M  V30 1844 C 176.379 -2.68425 -5.50104 0
M  V30 1845 N 175.516 -2.28815 -6.63768 0
M  V30 1846 H 180.356 -2.04858 -2.16419 0
M  V30 1847 H 177.893 -1.01974 -1.06017 0
M  V30 1848 H 179.851 -0.544822 -4.13627 0
M  V30 1849 H 178.481 0.142102 -3.22487 0
M  V30 1850 H 177.533 -2.27162 -3.05125 0
M  V30 1851 H 178.845 -2.7998 -4.12811 0
M  V30 1852 H 177.999 -1.28231 -5.92994 0
M  V30 1853 H 176.738 -0.651391 -4.8333 0
M  V30 1854 H 175.743 -2.94819 -4.64071 0
M  V30 1855 H 176.968 -3.57826 -5.7718 0
M  V30 1856 H 174.914 -1.42495 -6.40337 0
M  V30 1857 H 174.831 -3.08242 -6.90306 0
M  V30 1858 H 176.099 -2.06387 -7.51681 0
M  V30 1859 N 180.328 1.1314 -1.09713 0
M  V30 1860 C 181.553 1.88862 -0.857081 0
M  V30 1861 C 181.978 1.78729 0.586304 0
M  V30 1862 O 181.336 1.13692 1.41222 0
M  V30 1863 C 181.384 3.36325 -1.30069 0
M  V30 1864 O 180.488 4.09815 -0.461007 0
M  V30 1865 H 179.829 0.587108 -0.310162 0
M  V30 1866 H 182.359 1.43129 -1.46203 0
M  V30 1867 H 182.369 3.87157 -1.28738 0
M  V30 1868 H 181.044 3.43017 -2.35185 0
M  V30 1869 H 179.621 3.68986 -0.538888 0
M  V30 1870 N 181.806 0.884767 1.30421 0
M  V30 1871 C 183.046 0.509806 1.9794 0
M  V30 1872 C 183.41 -0.923736 1.68319 0
M  V30 1873 O 184.611 -1.40481 2.29169 0
M  V30 1874 C 182.882 0.776732 3.48858 0
M  V30 1875 S 184.441 0.503843 4.35898 0
M  V30 1876 H 181.259 0.189699 0.685227 0
M  V30 1877 H 183.861 1.14399 1.58535 0
M  V30 1878 H 182.565 1.81857 3.67908 0
M  V30 1879 H 182.096 0.1301 3.93185 0
M  V30 1880 H 184.111 -0.657625 4.91823 0
M  V30 1881 N 183.284 -1.43765 0.645699 0
M  V30 1882 C 184.194 -2.34544 -0.0512957 0
M  V30 1883 C 185.21 -1.53455 -0.82022 0
M  V30 1884 O 186.386 -1.86133 -0.769176 0
M  V30 1885 C 183.451 -3.31636 -1.01087 0
M  V30 1886 C 182.512 -4.2863 -0.239712 0
M  V30 1887 C 181.745 -5.21084 -1.15358 0
M  V30 1888 O 181.968 -5.1779 -2.39269 0
M  V30 1889 O 180.902 -5.98593 -0.630038 0
M  V30 1890 H 184.728 -2.95624 0.695718 0
M  V30 1891 H 182.313 -1.43781 0.405882 0
M  V30 1892 H 184.195 -3.9136 -1.56254 0
M  V30 1893 H 182.87 -2.73069 -1.73824 0
M  V30 1894 H 181.777 -3.72408 0.355356 0
M  V30 1895 H 183.11 -4.90157 0.447936 0
M  V30 1896 N 184.763 -0.387143 -1.52771 0
M  V30 1897 C 186.174 0.0873634 -1.86495 0
M  V30 1898 C 186.525 1.46336 -1.30691 0
M  V30 1899 O 185.65 2.068 -0.637409 0
M  V30 1900 C 186.245 0.165305 -3.38396 0
M  V30 1901 C 184.804 0.584101 -3.7184 0
M  V30 1902 C 183.951 -0.255279 -2.76122 0
M  V30 1903 H 186.902 -0.605104 -1.46711 0
M  V30 1904 H 186.923 0.984848 -3.67534 0
M  V30 1905 H 186.435 -0.836301 -3.78982 0
M  V30 1906 H 184.536 1.59315 -3.36823 0
M  V30 1907 H 184.649 0.343749 -4.77865 0
M  V30 1908 H 183.013 0.279126 -2.53166 0
M  V30 1909 H 183.796 -1.25482 -3.19545 0
M  V30 1910 N 186.241 1.57166 -0.116904 0
M  V30 1911 C 187.204 2.14039 0.819742 0
M  V30 1912 C 188.204 1.07477 1.19605 0
M  V30 1913 O 189.394 1.33263 1.1219 0
M  V30 1914 C 186.526 2.67891 2.10826 0
M  V30 1915 H 187.719 2.98128 0.325511 0
M  V30 1916 H 185.272 1.55739 0.132312 0
M  V30 1917 H 186.007 1.87384 2.64685 0
M  V30 1918 H 185.792 3.45823 1.84793 0
M  V30 1919 H 187.282 3.11809 2.77785 0
M  V30 1920 N 187.719 -0.156864 1.56817 0
M  V30 1921 C 188.965 -0.872416 1.83076 0
M  V30 1922 C 189.298 -1.81261 0.697001 0
M  V30 1923 O 188.573 -1.92171 -0.30008 0
M  V30 1924 C 188.856 -1.65551 3.19789 0
M  V30 1925 C 188.709 -0.737467 4.43713 0
M  V30 1926 C 190.028 -2.62012 3.53606 0
M  V30 1927 H 187.147 -0.315715 0.665953 0
M  V30 1928 H 189.789 -0.138004 1.89498 0
M  V30 1929 H 187.939 -2.28159 3.14445 0
M  V30 1930 H 189.611 -0.123143 4.61136 0
M  V30 1931 H 187.854 -0.0464067 4.33775 0
M  V30 1932 H 188.525 -1.32122 5.35955 0
M  V30 1933 H 191.001 -2.09525 3.59497 0
M  V30 1934 H 189.877 -3.13861 4.50314 0
M  V30 1935 H 190.138 -3.42902 2.79053 0
M  V30 1936 N 189.197 -1.51736 -0.425897 0
M  V30 1937 C 190.608 -1.5732 -1.00536 0
M  V30 1938 C 190.959 -0.403537 -1.92005 0
M  V30 1939 O 190.084 0.478256 -2.11049 0
M  V30 1940 C 190.679 -2.85119 -1.8301 0
M  V30 1941 C 189.238 -2.93236 -2.35987 0
M  V30 1942 C 188.385 -2.52098 -1.15508 0
M  V30 1943 H 191.336 -1.57348 -0.206739 0
M  V30 1944 H 191.357 -2.69526 -2.68581 0
M  V30 1945 H 190.869 -3.7023 -1.16411 0
M  V30 1946 H 188.97 -2.12581 -3.06007 0
M  V30 1947 H 189.083 -3.9713 -2.68001 0
M  V30 1948 H 187.447 -2.05558 -1.50393 0
M  V30 1949 H 188.23 -3.39565 -0.505014 0
M  V30 1950 N 190.675 0.682077 -1.42076 0
M  V30 1951 C 191.922 1.44215 -1.42156 0
M  V30 1952 C 192.25 1.94468 -0.0354186 0
M  V30 1953 O 191.505 1.70816 0.955002 0
M  V30 1954 C 191.804 2.66036 -2.38662 0
M  V30 1955 C 191.47 2.34366 -3.85206 0
M  V30 1956 C 190.132 2.25439 -4.25124 0
M  V30 1957 C 192.484 2.08513 -4.77673 0
M  V30 1958 C 189.812 1.88775 -5.55501 0
M  V30 1959 C 192.164 1.73354 -6.08384 0
M  V30 1960 C 190.828 1.62933 -6.47309 0
M  V30 1961 H 190.098 0.527718 -0.520187 0
M  V30 1962 H 192.745 0.778387 -1.74967 0
M  V30 1963 H 191.05 3.3741 -1.99152 0
M  V30 1964 H 192.747 3.24205 -2.35991 0
M  V30 1965 H 189.337 2.42213 -3.53597 0
M  V30 1966 H 193.521 2.14346 -4.47626 0
M  V30 1967 H 188.777 1.7927 -5.84527 0
M  V30 1968 H 192.951 1.52373 -6.79526 0
M  V30 1969 H 190.578 1.34292 -7.48244 0
M  V30 1970 N 192.153 1.28127 0.917671 0
M  V30 1971 C 193.564 1.13622 1.48145 0
M  V30 1972 C 193.915 -0.275207 1.9426 0
M  V30 1973 O 193.04 -1.1691 1.82102 0
M  V30 1974 C 193.635 2.05648 2.69248 0
M  V30 1975 C 192.194 1.95219 3.21818 0
M  V30 1976 C 191.341 1.97618 1.94532 0
M  V30 1977 H 194.292 1.40874 0.730772 0
M  V30 1978 H 194.313 1.61818 3.44377 0
M  V30 1979 H 193.825 3.08365 2.35653 0
M  V30 1980 H 191.926 0.955244 3.60147 0
M  V30 1981 H 192.039 2.81976 3.87333 0
M  V30 1982 H 190.403 1.41973 2.11461 0
M  V30 1983 H 191.186 3.02007 1.63238 0
M  V30 1984 N 193.631 -1.12557 1.10312 0
M  V30 1985 C 194.871 -1.8568 0.854543 0
M  V30 1986 C 195.235 -1.82091 -0.608843 0
M  V30 1987 O 196.436 -2.50544 -0.973717 0
M  V30 1988 C 194.707 -3.2942 1.38626 0
M  V30 1989 S 196.266 -4.19931 1.27293 0
M  V30 1990 H 193.084 -0.640427 0.308827 0
M  V30 1991 H 195.686 -1.35599 1.40831 0
M  V30 1992 H 194.39 -3.2959 2.44537 0
M  V30 1993 H 193.921 -3.84566 0.82902 0
M  V30 1994 H 195.936 -4.95668 0.229776 0
M  V30 1995 N 195.109 -0.891671 -1.2995 0
M  V30 1996 C 196.357 -0.512486 -1.95494 0
M  V30 1997 C 196.678 0.942776 -1.70695 0
M  V30 1998 O 195.948 1.66374 -1.03424 0
M  V30 1999 H 194.528 -0.186533 -0.723336 0
M  V30 2000 H 197.19 -1.13621 -1.58355 0
M  V30 2001 H 196.286 -0.688342 -3.04415 0
M  V30 2002 N 196.587 1.43421 -0.653314 0
M  V30 2003 C 198.003 1.56341 -0.320886 0
M  V30 2004 C 198.203 1.63696 1.17499 0
M  V30 2005 O 197.259 1.59208 1.95982 0
M  V30 2006 C 198.572 2.82424 -1.03233 0
M  V30 2007 C 200.12 2.96168 -1.01259 0
M  V30 2008 C 200.595 4.25084 -1.70492 0
M  V30 2009 N 202.086 4.31948 -1.67257 0
M  V30 2010 C 202.821 5.30466 -2.17701 0
M  V30 2011 N 202.317 6.35261 -2.76434 0
M  V30 2012 N 204.11 5.2212 -2.082 0
M  V30 2013 H 196.261 1.3689 -1.62403 0
M  V30 2014 H 198.524 0.657455 -0.682977 0
M  V30 2015 H 198.23 2.83053 -2.08744 0
M  V30 2016 H 198.104 3.72653 -0.583948 0
M  V30 2017 H 200.491 2.9508 0.0341235 0
M  V30 2018 H 200.572 2.07229 -1.49966 0
M  V30 2019 H 200.216 4.26932 -2.7512 0
M  V30 2020 H 200.146 5.1292 -1.19251 0
M  V30 2021 H 202.637 3.56838 -1.24398 0
M  V30 2022 H 202.95 7.06754 -3.12601 0
M  V30 2023 H 201.295 6.35884 -2.80495 0
M  V30 2024 H 204.486 4.39166 -1.62021 0
M  V30 2025 H 204.659 5.98739 -2.47822 0
M  V30 2026 N 198.065 0.39524 1.52563 0
M  V30 2027 C 199.311 -0.185318 2.01952 0
M  V30 2028 C 199.644 -1.45964 1.28095 0
M  V30 2029 O 198.919 -1.90689 0.38315 0
M  V30 2030 C 199.202 -0.447193 3.57312 0
M  V30 2031 C 199.055 0.842828 4.41833 0
M  V30 2032 C 200.374 -1.23529 4.22408 0
M  V30 2033 H 197.493 -0.0658788 0.73405 0
M  V30 2034 H 200.135 0.525975 1.82575 0
M  V30 2035 H 198.285 -1.05312 3.73954 0
M  V30 2036 H 199.957 1.4795 4.36931 0
M  V30 2037 H 198.2 1.45686 4.08605 0
M  V30 2038 H 198.871 0.614165 5.48573 0
M  V30 2039 H 201.347 -0.722445 4.0978 0
M  V30 2040 H 200.223 -1.38727 5.3108 0
M  V30 2041 H 200.484 -2.25213 3.80436 0
M  V30 2042 N 199.544 -1.57102 0.125237 0
M  V30 2043 C 200.769 -2.0019 -0.542101 0
M  V30 2044 C 201.194 -1.00449 -1.59034 0
M  V30 2045 O 200.552 0.0229423 -1.81285 0
M  V30 2046 C 200.6 -3.42129 -1.13929 0
M  V30 2047 O 199.704 -3.45307 -2.2547 0
M  V30 2048 H 199.045 -0.650171 -0.134812 0
M  V30 2049 H 201.575 -2.03461 0.215553 0
M  V30 2050 H 201.585 -3.80471 -1.4733 0
M  V30 2051 H 200.26 -4.14237 -0.371531 0
M  V30 2052 H 198.837 -3.1879 -1.93462 0
M  V30 2053 N 201.022 0.148545 -1.56898 0
M  V30 2054 C 202.268 0.862694 -1.83536 0
M  V30 2055 C 202.601 1.80889 -0.706604 0
M  V30 2056 O 201.876 1.92328 0.289885 0
M  V30 2057 C 202.159 1.63853 -3.20662 0
M  V30 2058 C 202.012 0.713925 -4.44098 0
M  V30 2059 C 203.331 2.60133 -3.54991 0
M  V30 2060 H 200.45 0.312179 -0.667618 0
M  V30 2061 H 203.092 0.127953 -1.89569 0
M  V30 2062 H 201.242 2.26489 -3.1565 0
M  V30 2063 H 202.914 0.098686 -4.61194 0
M  V30 2064 H 201.157 0.0234019 -4.33794 0
M  V30 2065 H 201.828 1.29278 -5.36648 0
M  V30 2066 H 204.304 2.07616 -3.60603 0
M  V30 2067 H 203.18 3.11468 -4.51972 0
M  V30 2068 H 203.441 3.41417 -2.80868 0
M  V30 2069 N 202.5 1.5196 0.417844 0
M  V30 2070 C 203.725 1.69717 1.1921 0
M  V30 2071 C 204.15 0.402148 1.83751 0
M  V30 2072 O 203.508 -0.639593 1.69643 0
M  V30 2073 C 203.556 2.82794 2.2374 0
M  V30 2074 O 202.66 2.47756 3.29683 0
M  V30 2075 H 202.001 0.565263 0.348387 0
M  V30 2076 H 204.531 1.98621 0.490985 0
M  V30 2077 H 204.541 3.07452 2.68212 0
M  V30 2078 H 203.216 3.76756 1.76146 0
M  V30 2079 H 201.793 2.33739 2.90552 0
M  V30 2080 N 203.978 -0.674533 1.42435 0
M  V30 2081 C 204.91 -1.80005 1.41883 0
M  V30 2082 C 205.923 -1.59667 0.31787 0
M  V30 2083 O 207.112 -1.68781 0.580973 0
M  V30 2084 C 204.212 -3.17114 1.19549 0
M  V30 2085 C 203.385 -3.64299 2.42084 0
M  V30 2086 C 202.444 -4.80142 2.15291 0
M  V30 2087 O 201.47 -4.90673 2.88493 0
M  V30 2088 N 202.672 -5.68869 1.1562 0
M  V30 2089 H 205.437 -1.80964 2.38898 0
M  V30 2090 H 202.998 -0.857633 1.37318 0
M  V30 2091 H 204.99 -3.92267 0.995417 0
M  V30 2092 H 203.56 -3.11053 0.310569 0
M  V30 2093 H 202.78 -2.79822 2.77657 0
M  V30 2094 H 204.068 -3.92567 3.23679 0
M  V30 2095 H 203.466 -5.63012 0.550765 0
M  V30 2096 H 202.023 -6.43833 1.016 0
M  V30 2097 N 205.456 -1.28612 -0.910864 0
M  V30 2098 C 206.684 -1.18792 -1.69399 0
M  V30 2099 C 207.099 0.253039 -1.87097 0
M  V30 2100 O 206.456 1.17071 -1.40003 0
M  V30 2101 C 206.507 -1.88511 -3.08457 0
M  V30 2102 O 206.228 -3.26979 -2.91576 0
M  V30 2103 C 207.729 -1.85029 -4.02839 0
M  V30 2104 H 204.949 -0.412233 -0.529438 0
M  V30 2105 H 207.493 -1.69788 -1.13984 0
M  V30 2106 H 205.648 -1.41379 -3.60681 0
M  V30 2107 H 206.062 -3.61936 -3.79608 0
M  V30 2108 H 207.536 -2.38395 -4.97867 0
M  V30 2109 H 208.013 -0.823303 -4.31414 0
M  V30 2110 H 208.619 -2.31853 -3.56545 0
M  V30 2111 N 206.934 1.1197 -1.10907 0
M  V30 2112 C 208.159 1.87942 -0.877064 0
M  V30 2113 C 208.584 1.79341 0.567314 0
M  V30 2114 O 207.942 1.15184 1.40009 0
M  V30 2115 C 207.99 3.34926 -1.33629 0
M  V30 2116 O 207.094 4.09303 -0.504447 0
M  V30 2117 H 206.435 0.583785 -0.316371 0
M  V30 2118 H 208.965 1.4157 -1.47712 0
M  V30 2119 H 208.975 3.8577 -1.32837 0
M  V30 2120 H 207.65 3.40504 -2.3881 0
M  V30 2121 H 206.227 3.68393 -0.577993 0
M  V30 2122 N 208.412 0.89855 1.29475 0
M  V30 2123 C 209.359 0.373819 2.27753 0
M  V30 2124 C 210.329 -0.543444 1.56958 0
M  V30 2125 O 211.514 -0.468934 1.84948 0
M  V30 2126 C 208.654 -0.393648 3.42848 0
M  V30 2127 C 207.767 0.554379 4.28428 0
M  V30 2128 C 206.902 -0.230026 5.30702 0
M  V30 2129 C 205.941 0.712599 6.07938 0
M  V30 2130 N 205.078 -0.0373283 7.0209 0
M  V30 2131 H 209.918 1.21699 2.72017 0
M  V30 2132 H 207.455 0.611456 1.33789 0
M  V30 2133 H 209.413 -0.85466 4.08352 0
M  V30 2134 H 208.043 -1.20128 2.99615 0
M  V30 2135 H 207.095 1.13391 3.63107 0
M  V30 2136 H 208.407 1.27597 4.82204 0
M  V30 2137 H 207.561 -0.752288 6.02018 0
M  V30 2138 H 206.3 -0.984758 4.77654 0
M  V30 2139 H 205.305 1.24637 5.35486 0
M  V30 2140 H 206.53 1.46664 6.63074 0
M  V30 2141 H 204.476 -0.774348 6.51414 0
M  V30 2142 H 204.393 0.624374 7.53417 0
M  V30 2143 H 205.661 -0.539891 7.77628 0
M  V30 2144 N 209.89 -1.43072 0.660911 0
M  V30 2145 C 210.82 -2.33497 -0.0122829 0
M  V30 2146 C 211.801 -1.49903 -0.803925 0
M  V30 2147 O 212.986 -1.78546 -0.763864 0
M  V30 2148 C 210.116 -3.33363 -0.973994 0
M  V30 2149 C 209.07 -4.27003 -0.291928 0
M  V30 2150 C 208.396 -5.16967 -1.36562 0
M  V30 2151 C 209.696 -5.15816 0.820462 0
M  V30 2152 H 211.39 -2.90038 0.742873 0
M  V30 2153 H 208.936 -1.39461 0.358688 0
M  V30 2154 H 210.889 -3.95524 -1.45392 0
M  V30 2155 H 209.613 -2.75095 -1.7604 0
M  V30 2156 H 208.272 -3.66217 0.167623 0
M  V30 2157 H 207.92 -4.55034 -2.14366 0
M  V30 2158 H 207.62 -5.80441 -0.914454 0
M  V30 2159 H 209.144 -5.82003 -1.84675 0
M  V30 2160 H 210.558 -5.71742 0.422366 0
M  V30 2161 H 208.955 -5.8805 1.19656 0
M  V30 2162 H 210.025 -4.55045 1.67518 0
M  V30 2163 N 211.368 -0.403325 -1.52352 0
M  V30 2164 C 212.596 0.174012 -2.06167 0
M  V30 2165 C 213.011 1.39347 -1.27388 0
M  V30 2166 O 212.368 1.79597 -0.324201 0
M  V30 2167 C 212.419 0.530223 -3.5759 0
M  V30 2168 O 212.14 -0.640806 -4.33388 0
M  V30 2169 C 213.641 1.16192 -4.27802 0
M  V30 2170 H 210.861 0.0229464 -0.670608 0
M  V30 2171 H 213.405 -0.572604 -1.9632 0
M  V30 2172 H 211.56 1.22673 -3.67464 0
M  V30 2173 H 211.974 -0.344851 -5.23365 0
M  V30 2174 H 213.448 1.36141 -5.34948 0
M  V30 2175 H 213.925 2.13335 -3.83907 0
M  V30 2176 H 214.531 0.505775 -4.22282 0
M  V30 2177 N 212.846 1.57033 -0.133567 0
M  V30 2178 C 214.262 1.58035 0.222944 0
M  V30 2179 C 214.462 1.14713 1.6566 0
M  V30 2180 O 213.518 0.841218 2.38075 0
M  V30 2181 C 214.831 3.00691 -0.0236116 0
M  V30 2182 C 216.379 3.12973 0.0411512 0
M  V30 2183 C 216.854 4.57654 -0.177899 0
M  V30 2184 N 218.345 4.63033 -0.124365 0
M  V30 2185 C 219.08 5.72771 -0.268553 0
M  V30 2186 N 218.576 6.91206 -0.46972 0
M  V30 2187 N 220.369 5.61718 -0.2071 0
M  V30 2188 H 212.52 1.8349 -1.06981 0
M  V30 2189 H 214.783 0.848677 -0.422436 0
M  V30 2190 H 214.489 3.36726 -1.0153 0
M  V30 2191 H 214.363 3.70614 0.701808 0
M  V30 2192 H 216.75 2.76787 1.02338 0
M  V30 2193 H 216.831 2.45564 -0.716383 0
M  V30 2194 H 216.475 4.94542 -1.15717 0
M  V30 2195 H 216.405 5.23173 0.599797 0
M  V30 2196 H 218.896 3.7789 0.027011 0
M  V30 2197 H 219.209 7.70693 -0.570212 0
M  V30 2198 H 217.554 6.93156 -0.505876 0
M  V30 2199 H 220.745 4.68072 -0.0507986 0
M  V30 2200 H 220.918 6.47195 -0.322909 0
M  V30 2201 N 214.325 -0.140222 1.56975 0
M  V30 2202 C 215.288 -1.15689 1.97861 0
M  V30 2203 C 216.288 -1.3549 0.865974 0
M  V30 2204 O 217.478 -1.32367 1.13246 0
M  V30 2205 C 214.61 -2.51582 2.30042 0
M  V30 2206 H 215.803 -0.805971 2.88867 0
M  V30 2207 H 213.356 -0.383801 1.51515 0
M  V30 2208 H 214.091 -2.91632 1.41849 0
M  V30 2209 H 213.876 -2.38569 3.11171 0
M  V30 2210 H 215.366 -3.24792 2.62488 0
M  V30 2211 N 215.803 -1.52179 -0.40978 0
M  V30 2212 C 216.713 -1.78364 -1.52392 0
M  V30 2213 C 217.729 -0.669183 -1.60617 0
M  V30 2214 O 218.905 -0.954518 -1.77344 0
M  V30 2215 C 215.97 -1.92822 -2.88133 0
M  V30 2216 C 215.031 -3.16725 -2.898 0
M  V30 2217 C 214.264 -3.30483 -4.19067 0
M  V30 2218 O 214.487 -2.49522 -5.12928 0
M  V30 2219 O 213.421 -4.2363 -4.27576 0
M  V30 2220 H 217.247 -2.72931 -1.33201 0
M  V30 2221 H 214.832 -1.37016 -0.59557 0
M  V30 2222 H 216.714 -2.04157 -3.68643 0
M  V30 2223 H 215.389 -1.01444 -3.07393 0
M  V30 2224 H 214.296 -3.10848 -2.08146 0
M  V30 2225 H 215.629 -4.07881 -2.75489 0
M  V30 2226 N 217.281 0.66697 -1.42791 0
M  V30 2227 C 218.509 1.45505 -1.47091 0
M  V30 2228 C 218.924 1.8861 -0.0845873 0
M  V30 2229 O 218.281 1.58632 0.90234 0
M  V30 2230 C 218.332 2.69906 -2.40485 0
M  V30 2231 O 218.053 2.28608 -3.73725 0
M  V30 2232 C 219.554 3.63396 -2.53886 0
M  V30 2233 H 216.774 0.447459 -0.500022 0
M  V30 2234 H 219.318 0.818866 -1.8739 0
M  V30 2235 H 217.473 3.29696 -2.03419 0
M  V30 2236 H 217.887 3.08997 -4.23817 0
M  V30 2237 H 219.361 4.47387 -3.2334 0
M  V30 2238 H 219.838 4.09824 -1.57927 0
M  V30 2239 H 220.444 3.09495 -2.91706 0
M  V30 2240 N 218.759 1.29093 0.90403 0
M  V30 2241 C 220.005 1.16986 1.65656 0
M  V30 2242 C 220.338 -0.278925 1.92186 0
M  V30 2243 O 219.613 -1.2019 1.5292 0
M  V30 2244 C 219.896 1.97908 3.0084 0
M  V30 2245 C 219.749 3.50903 2.81403 0
M  V30 2246 C 221.068 1.80208 4.01513 0
M  V30 2247 H 218.187 0.426346 0.601164 0
M  V30 2248 H 220.829 1.58518 1.04747 0
M  V30 2249 H 218.979 1.62616 3.52829 0
M  V30 2250 H 220.651 3.96153 2.36348 0
M  V30 2251 H 218.894 3.76045 2.1627 0
M  V30 2252 H 219.565 4.02791 3.77443 0
M  V30 2253 H 222.041 2.11025 3.58619 0
M  V30 2254 H 220.917 2.39184 4.94047 0
M  V30 2255 H 221.178 0.756119 4.35586 0
M  V30 2256 N 220.237 -1.11381 1.11499 0
M  V30 2257 C 221.484 -1.83132 0.864231 0
M  V30 2258 C 221.812 -1.84683 -0.610114 0
M  V30 2259 O 221.067 -1.29589 -1.46646 0
M  V30 2260 C 221.366 -3.30026 1.37177 0
M  V30 2261 C 221.032 -3.48634 2.85946 0
M  V30 2262 C 219.694 -3.53421 3.26569 0
M  V30 2263 C 222.046 -3.54837 3.81759 0
M  V30 2264 C 219.374 -3.61967 4.61733 0
M  V30 2265 C 221.726 -3.64915 5.1674 0
M  V30 2266 C 220.39 -3.67962 5.5692 0
M  V30 2267 H 219.66 -0.670127 0.316245 0
M  V30 2268 H 222.307 -1.31354 1.3935 0
M  V30 2269 H 220.612 -3.84304 0.762753 0
M  V30 2270 H 222.309 -3.84034 1.15408 0
M  V30 2271 H 218.899 -3.45579 2.53521 0
M  V30 2272 H 223.083 -3.50399 3.51474 0
M  V30 2273 H 218.339 -3.62603 4.92269 0
M  V30 2274 H 222.513 -3.68658 5.90816 0
M  V30 2275 H 220.14 -3.74336 6.61647 0
M  V30 2276 N 221.715 -0.905404 -1.28997 0
M  V30 2277 C 223.126 -0.581953 -1.77398 0
M  V30 2278 C 223.477 0.902552 -1.74208 0
M  V30 2279 O 222.602 1.70584 -1.33154 0
M  V30 2280 C 223.197 -1.04961 -3.22131 0
M  V30 2281 C 221.756 -0.777229 -3.68288 0
M  V30 2282 C 220.903 -1.22109 -2.48967 0
M  V30 2283 H 223.854 -1.08754 -1.15578 0
M  V30 2284 H 223.875 -0.387387 -3.78523 0
M  V30 2285 H 223.387 -2.13008 -3.24421 0
M  V30 2286 H 221.488 0.290383 -3.71467 0
M  V30 2287 H 221.601 -1.37911 -4.58822 0
M  V30 2288 H 219.965 -0.639971 -2.46529 0
M  V30 2289 H 220.748 -2.30972 -2.53982 0
M  V30 2290 N 223.193 1.4272 -0.668489 0
M  V30 2291 C 224.47 1.95248 -0.117373 0
M  V30 2292 C 224.85 1.60919 1.36632 0
M  V30 2293 O 224.198 0.902095 2.09939 0
M  V30 2294 C 224.408 3.46927 -0.379806 0
M  V30 2295 C 225.756 4.23588 -0.292923 0
M  V30 2296 O 226.78 3.5482 -0.313204 0
M  V30 2297 O 225.639 5.46017 -0.229697 0
M  V30 2298 H 222.733 0.827 0.00079152 0
M  V30 2299 H 225.279 1.52581 -0.742783 0
M  V30 2300 H 224.051 3.65096 -1.40786 0
M  V30 2301 H 223.674 3.96627 0.277923 0
M  V30 2302 N 224.671 0.411399 1.52136 0
M  V30 2303 C 225.917 -0.163888 2.02137 0
M  V30 2304 C 226.25 -1.44597 1.29636 0
M  V30 2305 O 225.525 -1.90272 0.403353 0
M  V30 2306 C 225.808 -0.40927 3.57767 0
M  V30 2307 C 225.661 0.889643 4.40914 0
M  V30 2308 C 226.98 -1.19042 4.23694 0
M  V30 2309 H 224.099 -0.0580896 0.734707 0
M  V30 2310 H 226.741 0.54531 1.82007 0
M  V30 2311 H 224.891 -1.0134 3.7505 0
M  V30 2312 H 226.563 1.52575 4.35337 0
M  V30 2313 H 224.806 1.50011 4.07037 0
M  V30 2314 H 225.477 0.672314 5.4789 0
M  V30 2315 H 227.953 -0.678942 4.10524 0
M  V30 2316 H 226.829 -1.33086 5.32522 0
M  V30 2317 H 227.09 -2.21166 3.82803 0
M  V30 2318 N 226.149 -1.5696 0.141893 0
M  V30 2319 C 227.426 -1.87553 -0.555281 0
M  V30 2320 C 227.806 -1.04699 -1.83306 0
M  V30 2321 O 227.154 -0.132346 -2.28116 0
M  V30 2322 C 227.364 -3.39093 -0.825664 0
M  V30 2323 C 228.712 -4.08199 -1.16869 0
M  V30 2324 O 229.736 -3.44242 -0.915185 0
M  V30 2325 O 228.595 -5.21139 -1.6455 0
M  V30 2326 H 225.689 -0.777188 -0.282679 0
M  V30 2327 H 228.235 -1.68763 0.17812 0
M  V30 2328 H 227.007 -3.91221 0.0788633 0
M  V30 2329 H 226.63 -3.63393 -1.61343 0
M  V30 2330 N 227.627 0.131896 -1.57047 0
M  V30 2331 C 228.857 0.855219 -1.88068 0
M  V30 2332 C 229.265 1.74557 -0.729817 0
M  V30 2333 O 228.608 1.81083 0.308962 0
M  V30 2334 C 228.67 1.75119 -3.13964 0
M  V30 2335 C 228.334 1.03646 -4.45091 0
M  V30 2336 C 229.331 0.383276 -5.18485 0
M  V30 2337 C 227.016 1.02148 -4.91804 0
M  V30 2338 C 229.01 -0.275347 -6.36805 0
M  V30 2339 C 226.697 0.359047 -6.10044 0
M  V30 2340 C 227.695 -0.288222 -6.82392 0
M  V30 2341 O 227.383 -0.94011 -7.98384 0
M  V30 2342 H 227.115 0.251864 -0.627328 0
M  V30 2343 H 229.669 0.124782 -2.05021 0
M  V30 2344 H 227.899 2.52295 -2.9306 0
M  V30 2345 H 229.588 2.3478 -3.31109 0
M  V30 2346 H 230.354 0.386562 -4.83457 0
M  V30 2347 H 226.233 1.5147 -4.35405 0
M  V30 2348 H 229.777 -0.781148 -6.93213 0
M  V30 2349 H 225.674 0.35348 -6.44531 0
M  V30 2350 H 226.442 -0.84329 -8.14144 0
M  V30 2351 N 229.106 1.52395 0.401703 0
M  V30 2352 C 230.352 1.67065 1.14966 0
M  V30 2353 C 230.685 0.403052 1.89971 0
M  V30 2354 O 229.96 -0.598774 1.85054 0
M  V30 2355 C 230.243 2.8975 2.13815 0
M  V30 2356 C 230.096 4.26578 1.42658 0
M  V30 2357 C 231.415 3.07965 3.14397 0
M  V30 2358 H 228.534 0.607968 0.416587 0
M  V30 2359 H 231.176 1.84965 0.434511 0
M  V30 2360 H 229.326 2.74619 2.74803 0
M  V30 2361 H 230.998 4.53451 0.847329 0
M  V30 2362 H 229.241 4.27639 0.72849 0
M  V30 2363 H 229.912 5.08483 2.14823 0
M  V30 2364 H 232.388 3.22043 2.63491 0
M  V30 2365 H 231.264 3.95308 3.80819 0
M  V30 2366 H 231.525 2.21611 3.82545 0
M  V30 2367 N 230.584 -0.659388 1.43143 0
M  V30 2368 C 231.532 -1.79374 1.4808 0
M  V30 2369 C 232.526 -1.65639 0.354988 0
M  V30 2370 O 233.732 -1.7206 0.528704 0
M  V30 2371 H 230.107 -0.591705 0.4641 0
M  V30 2372 H 232.078 -1.72329 2.43609 0
M  V30 2373 C 230.827 -3.17606 1.41499 0
M  V30 2374 H 230.15 -3.28809 2.27431 0
M  V30 2375 H 231.59 -3.96951 1.49015 0
M  V30 2376 C 230.049 -3.36642 0.131765 0
M  V30 2377 O 230.579 -3.93461 -0.809386 0
M  V30 2378 N 228.785 -2.90567 0.0439396 0
M  V30 2379 H 228.332 -2.44513 0.810619 0
M  V30 2380 H 228.29 -3.03681 -0.813969 0
M  V30 2381 N 232.062 -1.29571 -0.897171 0
M  V30 2382 C 233.287 -1.20705 -1.68656 0
M  V30 2383 C 233.712 0.228582 -1.86706 0
M  V30 2384 O 233.07 1.16494 -1.3892 0
M  V30 2385 C 233.118 -1.9282 -3.04717 0
M  V30 2386 O 232.222 -1.24697 -3.93096 0
M  V30 2387 H 231.563 -0.418126 -0.515816 0
M  V30 2388 H 234.093 -1.71183 -1.12061 0
M  V30 2389 H 234.103 -2.01372 -3.54843 0
M  V30 2390 H 232.778 -2.97239 -2.90899 0
M  V30 2391 H 231.355 -1.2442 -3.51531 0
M  V30 2392 N 233.54 1.10788 -1.12088 0
M  V30 2393 C 234.768 1.86461 -0.896651 0
M  V30 2394 C 235.183 1.80492 0.553912 0
M  V30 2395 O 234.54 1.19102 1.38278 0
M  V30 2396 C 234.591 3.35006 -1.35843 0
M  V30 2397 O 234.312 3.40866 -2.75213 0
M  V30 2398 C 235.813 4.27565 -1.1706 0
M  V30 2399 H 233.033 0.589425 -0.320654 0
M  V30 2400 H 235.577 1.40076 -1.48993 0
M  V30 2401 H 233.732 3.7887 -0.808458 0
M  V30 2402 H 234.146 4.33411 -2.9539 0
M  V30 2403 H 235.62 5.30007 -1.54263 0
M  V30 2404 H 236.097 4.3906 -0.110814 0
M  V30 2405 H 236.703 3.89501 -1.70789 0
M  V30 2406 N 235.018 0.912232 1.28515 0
M  V30 2407 C 235.928 0.404506 2.31086 0
M  V30 2408 C 236.944 -0.50707 1.66448 0
M  V30 2409 O 238.12 -0.393624 1.97516 0
M  V30 2410 C 235.185 -0.348572 3.44943 0
M  V30 2411 C 234.246 0.59604 4.25142 0
M  V30 2412 C 233.479 -0.121194 5.33562 0
M  V30 2413 O 233.702 -1.34317 5.5436 0
M  V30 2414 O 232.636 0.542716 5.99448 0
M  V30 2415 H 236.462 1.25579 2.76521 0
M  V30 2416 H 234.047 0.676998 1.33181 0
M  V30 2417 H 235.929 -0.77395 4.14232 0
M  V30 2418 H 234.604 -1.17571 3.01594 0
M  V30 2419 H 233.511 1.07079 3.58448 0
M  V30 2420 H 234.844 1.38995 4.72167 0
M  V30 2421 N 236.496 -1.42363 0.676048 0
M  V30 2422 C 237.459 -2.29199 0.00766941 0
M  V30 2423 C 238.459 -1.43389 -0.727745 0
M  V30 2424 O 239.649 -1.64764 -0.56556 0
M  V30 2425 C 236.781 -3.2591 -0.999785 0
M  V30 2426 H 237.974 -2.89794 0.771988 0
M  V30 2427 H 235.527 -1.50024 0.438468 0
M  V30 2428 H 236.262 -2.70256 -1.79255 0
M  V30 2429 H 236.047 -3.89202 -0.475829 0
M  V30 2430 H 237.537 -3.91028 -1.46583 0
M  V30 2431 N 237.974 -0.419461 -1.51915 0
M  V30 2432 C 238.884 0.407528 -2.31033 0
M  V30 2433 C 239.9 1.04413 -1.3919 0
M  V30 2434 O 241.076 1.0434 -1.72265 0
M  V30 2435 C 238.141 1.50365 -3.12396 0
M  V30 2436 C 237.202 0.889029 -4.19994 0
M  V30 2437 C 236.435 1.93291 -4.97468 0
M  V30 2438 O 236.658 3.15259 -4.75361 0
M  V30 2439 O 235.592 1.53339 -5.8204 0
M  V30 2440 H 239.418 -0.237865 -3.02767 0
M  V30 2441 H 237.003 -0.182413 -1.48282 0
M  V30 2442 H 238.885 2.13975 -3.63032 0
M  V30 2443 H 237.56 2.13345 -2.43445 0
M  V30 2444 H 236.467 0.215353 -3.7348 0
M  V30 2445 H 237.8 0.302991 -4.91267 0
M  V30 2446 N 239.452 1.56882 -0.150215 0
M  V30 2447 C 240.68 2.00593 0.506948 0
M  V30 2448 C 241.095 1.03033 1.58208 0
M  V30 2449 O 240.452 0.0278396 1.82479 0
M  V30 2450 C 240.503 3.44209 1.10465 0
M  V30 2451 O 240.224 4.3804 0.0724636 0
M  V30 2452 C 241.725 4.03214 1.84211 0
M  V30 2453 H 238.945 0.65795 0.13169 0
M  V30 2454 H 241.489 2.03018 -0.245743 0
M  V30 2455 H 239.644 3.42625 1.80795 0
M  V30 2456 H 240.058 5.22007 0.510793 0
M  V30 2457 H 241.532 5.0569 2.21318 0
M  V30 2458 H 242.009 3.44107 2.72923 0
M  V30 2459 H 242.615 4.08437 1.18572 0
M  V30 2460 N 240.93 -0.123565 1.57115 0
M  V30 2461 C 242.179 -0.830704 1.83799 0
M  V30 2462 C 242.492 -1.81259 0.735158 0
M  V30 2463 O 243.698 -2.56558 0.888278 0
M  V30 2464 C 242.154 -1.52802 3.25852 0
M  V30 2465 C 241.762 -0.587356 4.44133 0
M  V30 2466 C 243.506 -2.22056 3.61789 0
M  V30 2467 C 241.413 -1.28764 5.77212 0
M  V30 2468 H 240.343 -0.313967 0.685522 0
M  V30 2469 H 242.994 -0.0834359 1.8331 0
M  V30 2470 H 241.376 -2.32175 3.20797 0
M  V30 2471 H 242.55 0.172829 4.60476 0
M  V30 2472 H 240.865 -0.00201892 4.164 0
M  V30 2473 H 243.462 -2.75131 4.58483 0
M  V30 2474 H 243.805 -2.99644 2.88997 0
M  V30 2475 H 244.338 -1.49576 3.68608 0
M  V30 2476 H 241.077 -0.55314 6.53162 0
M  V30 2477 H 240.597 -2.01995 5.64764 0
M  V30 2478 H 242.276 -1.8221 6.20813 0
M  V30 2479 N 242.408 -1.52605 -0.393616 0
M  V30 2480 C 243.338 -1.80022 -1.48709 0
M  V30 2481 C 244.319 -0.651995 -1.57108 0
M  V30 2482 O 245.504 -0.89913 -1.72132 0
M  V30 2483 C 242.634 -1.96492 -2.86371 0
M  V30 2484 C 241.588 -3.12161 -2.92813 0
M  V30 2485 C 240.914 -3.13877 -4.3288 0
M  V30 2486 C 242.214 -4.51322 -2.6288 0
M  V30 2487 H 243.908 -2.71589 -1.26015 0
M  V30 2488 H 241.454 -1.30684 -0.604778 0
M  V30 2489 H 243.407 -2.14255 -3.62867 0
M  V30 2490 H 242.131 -1.01611 -3.10391 0
M  V30 2491 H 240.79 -2.94173 -2.18764 0
M  V30 2492 H 240.438 -2.16687 -4.53933 0
M  V30 2493 H 240.138 -3.91576 -4.38112 0
M  V30 2494 H 241.662 -3.33789 -5.1129 0
M  V30 2495 H 243.076 -4.69435 -3.29096 0
M  V30 2496 H 241.473 -5.31053 -2.79468 0
M  V30 2497 H 242.543 -4.58353 -1.58242 0
M  V30 2498 N 243.887 0.651787 -1.4349 0
M  V30 2499 C 245.164 1.40909 -1.35661 0
M  V30 2500 C 245.544 2.11099 -0.00511733 0
M  V30 2501 O 244.892 2.04892 1.0115 0
M  V30 2502 C 245.102 2.3926 -2.54078 0
M  V30 2503 C 246.45 3.03217 -2.97228 0
M  V30 2504 O 247.474 2.49588 -2.54135 0
M  V30 2505 O 246.333 4.00455 -3.71885 0
M  V30 2506 H 243.427 0.629625 -0.536191 0
M  V30 2507 H 245.973 0.678575 -1.55542 0
M  V30 2508 H 244.745 1.86352 -3.44076 0
M  V30 2509 H 244.368 3.1976 -2.36303 0
M  V30 2510 N 245.365 1.30045 0.890287 0
M  V30 2511 C 246.313 1.15873 2.01683 0
M  V30 2512 C 247.307 0.0719403 1.69247 0
M  V30 2513 O 248.513 0.232414 1.78493 0
M  V30 2514 H 244.888 0.358203 0.661207 0
M  V30 2515 H 246.859 2.11229 2.10772 0
M  V30 2516 C 245.608 0.861842 3.36849 0
M  V30 2517 H 244.931 1.69016 3.62317 0
M  V30 2518 H 246.371 0.802762 4.16331 0
M  V30 2519 C 244.83 -0.435132 3.34078 0
M  V30 2520 O 245.36 -1.4583 3.74295 0
M  V30 2521 N 243.566 -0.444377 2.87182 0
M  V30 2522 H 243.113 0.388723 2.5465 0
M  V30 2523 H 243.071 -1.31213 2.85711 0
M  V30 2524 N 246.843 -1.10192 1.12674 0
M  V30 2525 C 248.092 -1.81573 0.8783 0
M  V30 2526 C 248.405 -1.86249 -0.597557 0
M  V30 2527 O 249.611 -2.5386 -0.962681 0
M  V30 2528 C 248.067 -3.26149 1.52167 0
M  V30 2529 C 247.675 -3.29763 3.03249 0
M  V30 2530 C 249.419 -4.0234 1.3536 0
M  V30 2531 C 247.326 -4.68815 3.60508 0
M  V30 2532 H 246.256 -0.680394 0.324931 0
M  V30 2533 H 248.907 -1.23902 1.35353 0
M  V30 2534 H 247.289 -3.83832 0.974104 0
M  V30 2535 H 248.463 -2.8189 3.6452 0
M  V30 2536 H 246.778 -2.67059 3.19481 0
M  V30 2537 H 249.375 -5.05058 1.75559 0
M  V30 2538 H 249.718 -4.15235 0.297554 0
M  V30 2539 H 250.251 -3.51079 1.87052 0
M  V30 2540 H 246.99 -4.61121 4.65884 0
M  V30 2541 H 246.51 -5.17045 3.04014 0
M  V30 2542 H 248.189 -5.37785 3.59717 0
M  V30 2543 N 248.321 -0.919034 -1.28029 0
M  V30 2544 C 249.549 -0.570971 -1.98866 0
M  V30 2545 C 249.964 0.848996 -1.68634 0
M  V30 2546 O 249.321 1.56307 -0.942036 0
M  V30 2547 C 249.372 -0.776876 -3.53054 0
M  V30 2548 O 249.093 -2.14097 -3.82222 0
M  V30 2549 C 250.594 -0.436356 -4.41147 0
M  V30 2550 H 247.814 -0.217175 -0.634883 0
M  V30 2551 H 250.358 -1.23368 -1.63097 0
M  V30 2552 H 248.513 -0.161085 -3.87065 0
M  V30 2553 H 248.927 -2.18455 -4.76841 0
M  V30 2554 H 250.401 -0.63117 -5.4838 0
M  V30 2555 H 250.878 0.627686 -4.34692 0
M  V30 2556 H 251.484 -1.02991 -4.12641 0
M  V30 2557 N 249.799 1.42003 -0.683588 0
M  V30 2558 C 250.731 2.29183 0.0283068 0
M  V30 2559 C 251.744 1.4415 0.756611 0
M  V30 2560 O 252.933 1.67779 0.609306 0
M  V30 2561 C 250.033 3.21765 1.06398 0
M  V30 2562 C 249.206 4.35496 0.407723 0
M  V30 2563 C 248.265 5.08737 1.34437 0
M  V30 2564 O 247.291 5.62948 0.841318 0
M  V30 2565 N 248.493 5.15075 2.67728 0
M  V30 2566 H 251.258 2.9092 -0.720105 0
M  V30 2567 H 248.819 1.53025 -0.528682 0
M  V30 2568 H 250.811 3.6763 1.69204 0
M  V30 2569 H 249.381 2.61418 1.71404 0
M  V30 2570 H 248.601 3.92165 -0.400012 0
M  V30 2571 H 249.889 5.08776 -0.0490956 0
M  V30 2572 H 249.287 4.72457 3.11129 0
M  V30 2573 H 247.844 5.64556 3.2576 0
M  V30 2574 N 251.277 0.427512 1.51691 0
M  V30 2575 C 252.502 -0.143601 2.06902 0
M  V30 2576 C 252.927 -1.36536 1.29382 0
M  V30 2577 O 252.285 -1.78289 0.329043 0
M  V30 2578 C 252.333 -0.454207 3.57728 0
M  V30 2579 O 251.437 -1.54228 3.82475 0
M  V30 2580 H 250.778 -0.00617128 0.663971 0
M  V30 2581 H 253.308 0.606014 1.95419 0
M  V30 2582 H 253.318 -0.707525 4.01818 0
M  V30 2583 H 251.993 0.438812 4.13579 0
M  V30 2584 H 250.57 -1.2797 3.50254 0
M  V30 2585 N 252.755 -1.56801 0.158532 0
M  V30 2586 C 253.983 -2.00859 -0.496303 0
M  V30 2587 C 254.398 -1.03871 -1.57659 0
M  V30 2588 O 253.755 -0.0375165 -1.82461 0
M  V30 2589 C 253.806 -3.4479 -1.08638 0
M  V30 2590 O 253.527 -4.38072 -0.0492322 0
M  V30 2591 C 255.028 -4.04185 -1.8207 0
M  V30 2592 H 252.248 -0.65864 -0.128199 0
M  V30 2593 H 254.792 -2.02885 0.256506 0
M  V30 2594 H 252.947 -3.43579 -1.78975 0
M  V30 2595 H 253.361 -5.2227 -0.483102 0
M  V30 2596 H 254.835 -5.06857 -2.18633 0
M  V30 2597 H 255.312 -3.45549 -2.71095 0
M  V30 2598 H 255.918 -4.0906 -1.16405 0
M  V30 2599 N 254.233 0.115231 -1.57178 0
M  V30 2600 C 255.165 1.16694 -1.97269 0
M  V30 2601 C 256.178 1.37445 -0.872502 0
M  V30 2602 O 257.367 1.36454 -1.15077 0
M  V30 2603 C 254.467 2.52627 -2.25905 0
M  V30 2604 C 253.64 2.52427 -3.57211 0
M  V30 2605 C 252.699 3.70134 -3.74016 0
M  V30 2606 O 251.725 3.53546 -4.46087 0
M  V30 2607 N 252.927 4.88844 -3.13068 0
M  V30 2608 H 255.692 0.82588 -2.88096 0
M  V30 2609 H 253.253 0.304461 -1.59011 0
M  V30 2610 H 255.245 3.29937 -2.34359 0
M  V30 2611 H 253.815 2.789 -1.41186 0
M  V30 2612 H 253.035 1.60805 -3.5991 0
M  V30 2613 H 254.323 2.49353 -4.43509 0
M  V30 2614 H 253.721 5.05225 -2.54489 0
M  V30 2615 H 252.278 5.63817 -3.27037 0
M  V30 2616 N 255.711 1.52812 0.385517 0
M  V30 2617 C 256.936 1.72207 1.15583 0
M  V30 2618 C 257.361 0.441034 1.82857 0
M  V30 2619 O 256.719 -0.603465 1.70962 0
M  V30 2620 C 256.767 2.87476 2.17692 0
M  V30 2621 O 255.871 2.54693 3.24354 0
M  V30 2622 H 255.212 0.572526 0.336319 0
M  V30 2623 H 257.742 1.99618 0.448744 0
M  V30 2624 H 257.752 3.13072 2.6163 0
M  V30 2625 H 256.427 3.80408 1.68115 0
M  V30 2626 H 255.004 2.3985 2.85529 0
M  V30 2627 N 257.189 -0.644168 1.43834 0
M  V30 2628 C 258.436 -1.40395 1.4593 0
M  V30 2629 C 258.764 -1.94305 0.0869658 0
M  V30 2630 O 258.019 -1.73288 -0.909378 0
M  V30 2631 C 258.318 -2.59615 2.45631 0
M  V30 2632 C 257.984 -2.2407 3.91284 0
M  V30 2633 C 256.646 -2.14089 4.30952 0
M  V30 2634 C 258.998 -1.95775 4.83034 0
M  V30 2635 C 256.326 -1.73981 5.6031 0
M  V30 2636 C 258.678 -1.57163 6.12766 0
M  V30 2637 C 257.342 -1.45713 6.51402 0
M  V30 2638 H 256.612 -0.513741 0.533995 0
M  V30 2639 H 259.259 -0.731724 1.76969 0
M  V30 2640 H 257.564 -3.32011 2.08028 0
M  V30 2641 H 259.261 -3.17834 2.44504 0
M  V30 2642 H 255.851 -2.32753 3.59895 0
M  V30 2643 H 260.035 -2.02403 4.53152 0
M  V30 2644 H 255.291 -1.63709 5.89075 0
M  V30 2645 H 259.465 -1.34303 6.83327 0
M  V30 2646 H 257.092 -1.14406 7.51542 0
M  V30 2647 N 258.668 -1.30515 -0.883378 0
M  V30 2648 C 259.616 -1.16941 -2.01066 0
M  V30 2649 C 260.61 -0.0809148 -1.69207 0
M  V30 2650 O 261.816 -0.241877 -1.78367 0
M  V30 2651 H 258.191 -0.361705 -0.659298 0
M  V30 2652 H 260.162 -2.12344 -2.09649 0
M  V30 2653 C 258.911 -0.879694 -3.36388 0
M  V30 2654 H 258.234 -1.70936 -3.61415 0
M  V30 2655 H 259.674 -0.82483 -4.159 0
M  V30 2656 C 258.133 0.417409 -3.34304 0
M  V30 2657 O 258.663 1.43843 -3.75063 0
M  V30 2658 N 256.869 0.429141 -2.87414 0
M  V30 2659 H 256.416 -0.402222 -2.5444 0
M  V30 2660 H 256.374 1.29696 -2.86403 0
M  V30 2661 N 260.146 1.09593 -1.13257 0
M  V30 2662 C 261.423 1.78293 -0.804432 0
M  V30 2663 C 261.803 1.99004 0.70431 0
M  V30 2664 O 261.151 1.59007 1.641 0
M  V30 2665 C 261.361 3.10707 -1.5894 0
M  V30 2666 C 262.709 3.85443 -1.78099 0
M  V30 2667 O 263.733 3.20454 -1.55525 0
M  V30 2668 O 262.592 5.02108 -2.15753 0
M  V30 2669 H 259.686 0.773156 -0.293528 0
M  V30 2670 H 262.232 1.16164 -1.23709 0
M  V30 2671 H 261.004 2.91106 -2.61482 0
M  V30 2672 H 260.627 3.80558 -1.15157 0
M  V30 2673 N 261.624 0.925811 1.2754 0
M  V30 2674 C 262.871 0.565255 1.94451 0
M  V30 2675 C 263.199 -0.89316 1.7278 0
M  V30 2676 O 262.454 -1.65213 1.04895 0
M  V30 2677 C 262.753 0.835296 3.47502 0
M  V30 2678 C 262.419 2.27515 3.89291 0
M  V30 2679 C 261.081 2.66879 4.00411 0
M  V30 2680 C 263.433 3.21158 4.10496 0
M  V30 2681 C 260.761 3.99014 4.30122 0
M  V30 2682 C 263.113 4.52871 4.4169 0
M  V30 2683 C 261.777 4.92072 4.51023 0
M  V30 2684 H 261.047 0.206841 0.711546 0
M  V30 2685 H 263.694 1.16942 1.51647 0
M  V30 2686 H 261.999 0.148442 3.91519 0
M  V30 2687 H 263.696 0.535322 3.97411 0
M  V30 2688 H 260.286 1.95976 3.81171 0
M  V30 2689 H 264.47 2.9195 4.01346 0
M  V30 2690 H 259.726 4.2907 4.35556 0
M  V30 2691 H 263.9 5.25436 4.57045 0
M  V30 2692 H 261.527 5.9449 4.738 0
M  V30 2693 N 263.102 -1.41638 0.69111 0
M  V30 2694 C 264.33 -2.05628 0.22909 0
M  V30 2695 C 264.745 -1.51992 -1.11999 0
M  V30 2696 O 264.102 -0.666322 -1.69901 0
M  V30 2697 C 264.153 -3.61084 0.173283 0
M  V30 2698 O 263.874 -4.12735 1.46907 0
M  V30 2699 C 265.375 -4.42213 -0.310266 0
M  V30 2700 H 262.595 -0.662327 0.107534 0
M  V30 2701 H 265.139 -1.81489 0.942438 0
M  V30 2702 H 263.294 -3.84278 -0.490858 0
M  V30 2703 H 263.708 -5.06743 1.35322 0
M  V30 2704 H 265.182 -5.51194 -0.298196 0
M  V30 2705 H 265.659 -4.1799 -1.34838 0
M  V30 2706 H 266.265 -4.24074 0.322716 0
M  V30 2707 N 264.58 -0.43555 -1.51462 0
M  V30 2708 C 265.996 -0.0877501 -1.59359 0
M  V30 2709 C 266.196 1.4027 -1.4466 0
M  V30 2710 O 265.252 2.17243 -1.28693 0
M  V30 2711 C 266.565 -0.606264 -2.94525 0
M  V30 2712 C 268.113 -0.566548 -3.0783 0
M  V30 2713 C 268.588 -1.06201 -4.45517 0
M  V30 2714 N 270.079 -1.01992 -4.51832 0
M  V30 2715 C 270.814 -1.37417 -5.5669 0
M  V30 2716 N 270.31 -1.80119 -6.68976 0
M  V30 2717 N 272.103 -1.29245 -5.47039 0
M  V30 2718 H 264.254 -1.40533 -1.59261 0
M  V30 2719 H 266.517 -0.578992 -0.750648 0
M  V30 2720 H 266.223 -1.64901 -3.10645 0
M  V30 2721 H 266.097 -0.0302097 -3.77188 0
M  V30 2722 H 268.484 0.467208 -2.91378 0
M  V30 2723 H 268.565 -1.17898 -2.2701 0
M  V30 2724 H 268.209 -2.09422 -4.62715 0
M  V30 2725 H 268.139 -0.426127 -5.24873 0
M  V30 2726 H 270.63 -0.706308 -3.71241 0
M  V30 2727 H 270.943 -2.05392 -7.45006 0
M  V30 2728 H 269.288 -1.84044 -6.70189 0
M  V30 2729 H 272.479 -0.957522 -4.58202 0
M  V30 2730 H 272.652 -1.57182 -6.28648 0
M  V30 2731 N 266.058 1.56714 -0.166846 0
M  V30 2732 C 267.304 1.97039 0.479962 0
M  V30 2733 C 267.637 1.05264 1.63197 0
M  V30 2734 O 266.912 0.0988833 1.94248 0
M  V30 2735 C 267.195 3.46867 0.967212 0
M  V30 2736 C 267.048 4.49421 -0.18466 0
M  V30 2737 C 268.367 3.9968 1.84238 0
M  V30 2738 H 265.486 0.71641 0.172992 0
M  V30 2739 H 268.128 1.8832 -0.252079 0
M  V30 2740 H 266.278 3.54428 1.59101 0
M  V30 2741 H 267.95 4.53924 -0.821621 0
M  V30 2742 H 266.193 4.25573 -0.840837 0
M  V30 2743 H 266.864 5.51644 0.198317 0
M  V30 2744 H 269.34 3.94723 1.31655 0
M  V30 2745 H 268.216 5.04941 2.15234 0
M  V30 2746 H 268.477 3.43226 2.78654 0
M  V30 2747 N 267.536 -0.106894 1.57237 0
M  V30 2748 C 268.782 -0.81373 1.85759 0
M  V30 2749 C 269.115 -1.78952 0.754315 0
M  V30 2750 O 268.39 -1.93029 -0.23879 0
M  V30 2751 C 268.673 -1.55293 3.24894 0
M  V30 2752 C 268.526 -0.595929 4.45835 0
M  V30 2753 C 269.845 -2.5063 3.61763 0
M  V30 2754 H 266.964 -0.294369 0.67566 0
M  V30 2755 H 269.606 -0.0776472 1.89841 0
M  V30 2756 H 267.756 -2.1804 3.21544 0
M  V30 2757 H 269.428 0.0236262 4.61294 0
M  V30 2758 H 267.671 0.0916191 4.33703 0
M  V30 2759 H 268.342 -1.15004 5.39887 0
M  V30 2760 H 270.818 -1.97982 3.65981 0
M  V30 2761 H 269.694 -2.99376 4.60071 0
M  V30 2762 H 269.955 -3.3385 2.89821 0
M  V30 2763 N 269.014 -1.53014 -0.377408 0
M  V30 2764 C 270.262 -1.6829 -1.11906 0
M  V30 2765 C 270.583 -0.431206 -1.90173 0
M  V30 2766 O 269.853 0.554595 -1.87886 0
M  V30 2767 H 268.433 -0.620371 -0.416112 0
M  V30 2768 H 271.095 -1.90167 -0.426893 0
M  V30 2769 H 270.191 -2.53862 -1.8155 0
M  V30 2770 N 270.492 0.636531 -1.44174 0
M  V30 2771 C 271.74 1.39343 -1.46383 0
M  V30 2772 C 272.061 1.94766 -0.0955715 0
M  V30 2773 O 271.331 1.75452 0.871395 0
M  V30 2774 H 269.911 0.517199 -0.538994 0
M  V30 2775 H 272.573 0.74957 -1.7991 0
M  V30 2776 H 271.669 2.22746 -2.18611 0
M  V30 2777 N 271.97 1.30982 0.876444 0
M  V30 2778 C 272.88 1.2003 2.01569 0
M  V30 2779 C 273.896 0.11838 1.73597 0
M  V30 2780 O 275.072 0.33495 1.98595 0
M  V30 2781 C 272.137 0.901637 3.34771 0
M  V30 2782 C 271.198 2.06979 3.76109 0
M  V30 2783 C 270.431 1.78529 5.02954 0
M  V30 2784 O 270.654 0.717296 5.65872 0
M  V30 2785 O 269.588 2.64019 5.40905 0
M  V30 2786 H 273.414 2.15753 2.13739 0
M  V30 2787 H 270.999 1.10658 1.00375 0
M  V30 2788 H 272.881 0.750645 4.1466 0
M  V30 2789 H 271.556 -0.0256141 3.2369 0
M  V30 2790 H 270.463 2.27616 2.96887 0
M  V30 2791 H 271.796 2.97907 3.91807 0
M  V30 2792 N 273.449 -1.08991 1.13837 0
M  V30 2793 C 274.726 -1.77863 0.813876 0
M  V30 2794 C 275.106 -1.99375 -0.693746 0
M  V30 2795 O 274.454 -1.59875 -1.63255 0
M  V30 2796 C 274.664 -3.0986 1.60586 0
M  V30 2797 C 276.012 -3.84493 1.8014 0
M  V30 2798 O 277.036 -3.19624 1.57222 0
M  V30 2799 O 275.895 -5.00957 2.18413 0
M  V30 2800 H 272.989 -0.771589 0.297624 0
M  V30 2801 H 275.535 -1.15507 1.24323 0
M  V30 2802 H 274.307 -2.89715 2.63022 0
M  V30 2803 H 273.93 -3.79942 1.17173 0
M  V30 2804 N 274.927 -0.932562 -1.27047 0
M  V30 2805 C 275.89 -0.440064 -2.24936 0
M  V30 2806 C 276.89 0.444071 -1.54547 0
M  V30 2807 O 278.08 0.244465 -1.72476 0
M  V30 2808 C 275.212 0.36678 -3.38921 0
M  V30 2809 H 276.405 -1.305 -2.70018 0
M  V30 2810 H 273.958 -0.713707 -1.39054 0
M  V30 2811 H 274.693 1.25033 -2.99228 0
M  V30 2812 H 274.478 -0.267204 -3.91188 0
M  V30 2813 H 275.968 0.701567 -4.11665 0
M  V30 2814 N 276.405 1.4127 -0.698611 0
M  V30 2815 C 277.352 2.30773 -0.0352094 0
M  V30 2816 C 278.322 1.47273 0.768111 0
M  V30 2817 O 279.507 1.76053 0.735524 0
M  V30 2818 C 276.647 3.33346 0.893 0
M  V30 2819 C 275.76 4.31924 0.0809695 0
M  V30 2820 C 274.895 5.21566 1.0071 0
M  V30 2821 C 273.934 6.11811 0.188155 0
M  V30 2822 N 273.071 6.93926 1.06825 0
M  V30 2823 H 277.911 2.86943 -0.804207 0
M  V30 2824 H 275.448 1.4132 -0.408294 0
M  V30 2825 H 277.406 3.91368 1.44523 0
M  V30 2826 H 276.036 2.78719 1.62836 0
M  V30 2827 H 275.088 3.75825 -0.588224 0
M  V30 2828 H 276.4 4.95716 -0.553801 0
M  V30 2829 H 275.554 5.84437 1.62845 0
M  V30 2830 H 274.293 4.58008 1.67572 0
M  V30 2831 H 273.298 5.47986 -0.446254 0
M  V30 2832 H 274.523 6.77425 -0.476716 0
M  V30 2833 H 272.469 6.32973 1.72283 0
M  V30 2834 H 272.386 7.54416 0.489123 0
M  V30 2835 H 273.654 7.61262 1.67632 0
M  V30 2836 N 277.883 0.443576 1.51229 0
M  V30 2837 C 279.294 -0.0180867 1.86691 0
M  V30 2838 C 279.645 -1.41384 1.36033 0
M  V30 2839 O 278.77 -2.04291 0.713722 0
M  V30 2840 C 279.365 -0.039597 3.38777 0
M  V30 2841 C 277.924 -0.445692 3.73752 0
M  V30 2842 C 277.071 0.357584 2.74985 0
M  V30 2843 H 280.022 0.659138 1.44364 0
M  V30 2844 H 280.043 -0.847761 3.70936 0
M  V30 2845 H 279.555 0.976382 3.75617 0
M  V30 2846 H 277.656 -1.46704 3.42503 0
M  V30 2847 H 277.769 -0.166155 4.78812 0
M  V30 2848 H 276.133 -0.184973 2.54027 0
M  V30 2849 H 276.916 1.37256 3.14668 0
M  V30 2850 N 279.361 -1.56624 0.175154 0
M  V30 2851 C 280.609 -1.96609 -0.467885 0
M  V30 2852 C 280.93 -1.06238 -1.63519 0
M  V30 2853 O 280.2 -0.129523 -1.95471 0
M  V30 2854 H 278.78 -0.726008 -0.175845 0
M  V30 2855 H 281.442 -1.93195 0.257234 0
M  V30 2856 H 280.538 -3.00989 -0.825342 0
M  V30 2857 N 280.839 0.0985539 -1.57292 0
M  V30 2858 C 281.771 1.14595 -1.98496 0
M  V30 2859 C 282.784 1.36512 -0.887031 0
M  V30 2860 O 283.973 1.35225 -1.16518 0
M  V30 2861 C 281.073 2.50216 -2.28572 0
M  V30 2862 C 280.246 2.48624 -3.59868 0
M  V30 2863 C 279.305 3.66146 -3.7792 0
M  V30 2864 O 278.331 3.48795 -4.49812 0
M  V30 2865 N 279.533 4.85496 -3.18235 0
M  V30 2866 H 282.298 0.795277 -2.88956 0
M  V30 2867 H 279.859 0.287579 -1.59325 0
M  V30 2868 H 281.851 3.27432 -2.37845 0
M  V30 2869 H 280.421 2.77387 -1.44136 0
M  V30 2870 H 279.641 1.56978 -3.61596 0
M  V30 2871 H 280.929 2.44635 -4.46129 0
M  V30 2872 H 280.327 5.02497 -2.59833 0
M  V30 2873 H 278.884 5.60317 -3.32999 0
M  V30 2874 N 282.317 1.53212 0.369288 0
M  V30 2875 C 283.564 1.69215 1.11232 0
M  V30 2876 C 283.892 0.442048 1.8941 0
M  V30 2877 O 283.147 -0.575944 1.87033 0
M  V30 2878 C 283.446 2.89101 2.10132 0
M  V30 2879 C 283.112 4.25758 1.48463 0
M  V30 2880 C 281.774 4.6292 1.31372 0
M  V30 2881 C 284.126 5.10757 1.03811 0
M  V30 2882 C 281.454 5.82722 0.68207 0
M  V30 2883 C 283.806 6.31201 0.420487 0
M  V30 2884 C 282.47 6.67079 0.237038 0
M  V30 2885 H 281.74 0.619201 0.407027 0
M  V30 2886 H 284.387 1.87391 0.394552 0
M  V30 2887 H 282.692 2.65421 2.88199 0
M  V30 2888 H 284.389 2.98676 2.6757 0
M  V30 2889 H 280.979 3.96494 1.62758 0
M  V30 2890 H 285.163 4.82599 1.1581 0
M  V30 2891 H 280.419 6.09113 0.528316 0
M  V30 2892 H 284.593 6.96368 0.0662874 0
M  V30 2893 H 282.22 7.59774 -0.254477 0
M  V30 2894 N 283.795 -0.628877 1.44509 0
M  V30 2895 C 285.206 -1.21054 1.42137 0
M  V30 2896 C 285.557 -1.95715 0.137881 0
M  V30 2897 O 284.682 -2.02554 -0.761645 0
M  V30 2898 C 285.277 -2.20189 2.57493 0
M  V30 2899 C 283.836 -2.73777 2.58308 0
M  V30 2900 C 282.983 -1.48813 2.33987 0
M  V30 2901 H 285.934 -0.41942 1.53057 0
M  V30 2902 H 285.955 -3.02833 2.30375 0
M  V30 2903 H 285.467 -1.6582 3.50892 0
M  V30 2904 H 283.568 -3.32142 1.68856 0
M  V30 2905 H 283.681 -3.19662 3.56865 0
M  V30 2906 H 282.045 -1.77024 1.83124 0
M  V30 2907 H 282.828 -0.963442 3.29504 0
M  V30 2908 N 285.273 -1.31445 -0.869486 0
M  V30 2909 C 286.519 -1.22347 -1.62489 0
M  V30 2910 C 286.874 0.216204 -1.91181 0
M  V30 2911 O 286.167 1.14977 -1.53268 0
M  V30 2912 C 286.361 -2.00145 -2.96102 0
M  V30 2913 C 286.19 -3.51531 -2.80456 0
M  V30 2914 C 284.96 -4.20882 -2.79618 0
M  V30 2915 C 287.158 -4.46471 -2.5528 0
M  V30 2916 N 285.14 -5.58421 -2.55027 0
M  V30 2917 C 286.511 -5.71682 -2.39957 0
M  V30 2918 C 288.566 -4.35892 -2.40629 0
M  V30 2919 C 287.269 -6.87511 -2.11472 0
M  V30 2920 C 289.295 -5.51505 -2.13532 0
M  V30 2921 C 288.657 -6.75707 -1.98998 0
M  V30 2922 H 284.756 -0.502815 -0.598917 0
M  V30 2923 H 287.34 -1.65639 -1.02332 0
M  V30 2924 H 285.511 -1.59221 -3.54264 0
M  V30 2925 H 287.243 -1.83063 -3.60929 0
M  V30 2926 H 283.998 -3.72857 -2.92018 0
M  V30 2927 H 284.422 -6.30841 -2.45701 0
M  V30 2928 H 289.064 -3.40533 -2.50593 0
M  V30 2929 H 286.782 -7.82897 -2.00245 0
M  V30 2930 H 290.368 -5.45238 -2.02995 0
M  V30 2931 H 289.248 -7.63655 -1.78326 0
M  V30 2932 N 286.751 1.08385 -1.14413 0
M  V30 2933 C 287.683 2.1519 -0.789036 0
M  V30 2934 C 288.696 1.61638 0.19417 0
M  V30 2935 O 289.885 1.78479 -0.0275711 0
M  V30 2936 C 286.985 3.38565 -0.15058 0
M  V30 2937 C 286.158 4.21501 -1.16857 0
M  V30 2938 C 285.217 5.23277 -0.553832 0
M  V30 2939 O 284.243 5.56041 -1.21686 0
M  V30 2940 N 285.445 5.76629 0.669296 0
M  V30 2941 H 288.21 2.46257 -1.70814 0
M  V30 2942 H 285.771 1.24198 -1.03858 0
M  V30 2943 H 287.763 4.03777 0.273181 0
M  V30 2944 H 286.333 3.05299 0.671667 0
M  V30 2945 H 285.553 3.52265 -1.76926 0
M  V30 2946 H 286.841 4.73731 -1.85624 0
M  V30 2947 H 286.239 5.52243 1.22654 0
M  V30 2948 H 284.796 6.43521 1.03556 0
M  V30 2949 N 288.23 0.939286 1.26551 0
M  V30 2950 C 289.476 0.586715 1.94128 0
M  V30 2951 C 289.809 -0.8717 1.73537 0
M  V30 2952 O 289.084 -1.62339 1.07127 0
M  V30 2953 C 289.367 0.927497 3.4795 0
M  V30 2954 C 289.22 2.44052 3.77834 0
M  V30 2955 C 290.539 0.441569 4.37879 0
M  V30 2956 H 287.658 0.21463 0.705055 0
M  V30 2957 H 290.3 1.17316 1.49455 0
M  V30 2958 H 288.45 0.428431 3.8613 0
M  V30 2959 H 290.122 3.01216 3.4938 0
M  V30 2960 H 288.365 2.8848 3.23978 0
M  V30 2961 H 289.036 2.62947 4.85348 0
M  V30 2962 H 291.512 0.869448 4.06915 0
M  V30 2963 H 290.388 0.708856 5.44304 0
M  V30 2964 H 290.649 -0.658467 4.37169 0
M  V30 2965 N 289.708 -1.40897 0.706093 0
M  V30 2966 C 290.954 -2.01352 0.241889 0
M  V30 2967 C 291.287 -1.55832 -1.15888 0
M  V30 2968 O 290.562 -0.774145 -1.7843 0
M  V30 2969 C 290.845 -3.58752 0.311311 0
M  V30 2970 C 290.698 -4.1437 1.74978 0
M  V30 2971 C 292.017 -4.38914 -0.322922 0
M  V30 2972 H 289.136 -0.731562 0.0893687 0
M  V30 2973 H 291.778 -1.67504 0.896802 0
M  V30 2974 H 289.928 -3.87718 -0.246302 0
M  V30 2975 H 291.6 -3.96239 2.36205 0
M  V30 2976 H 289.843 -3.69016 2.28057 0
M  V30 2977 H 290.514 -5.23532 1.74981 0
M  V30 2978 H 292.99 -4.15822 0.152089 0
M  V30 2979 H 291.866 -5.48358 -0.243855 0
M  V30 2980 H 292.127 -4.19176 -1.40513 0
M  V30 2981 N 291.186 -0.45159 -1.50991 0
M  V30 2982 C 292.116 0.342898 -2.30969 0
M  V30 2983 C 293.097 1.00815 -1.37005 0
M  V30 2984 O 294.282 1.00907 -1.65926 0
M  V30 2985 C 291.412 1.43637 -3.16205 0
M  V30 2986 C 290.366 0.893818 -4.18563 0
M  V30 2987 C 289.692 2.08411 -4.92411 0
M  V30 2988 C 290.992 -0.0815568 -5.22236 0
M  V30 2989 H 292.686 -0.324556 -2.97636 0
M  V30 2990 H 290.232 -0.157531 -1.43136 0
M  V30 2991 H 292.185 1.9995 -3.70942 0
M  V30 2992 H 290.909 2.13232 -2.47386 0
M  V30 2993 H 289.568 0.352798 -3.64898 0
M  V30 2994 H 289.216 2.76658 -4.20082 0
M  V30 2995 H 288.916 1.72741 -5.61636 0
M  V30 2996 H 290.44 2.65251 -5.49976 0
M  V30 2997 H 291.854 0.391742 -5.7196 0
M  V30 2998 H 290.251 -0.351551 -5.99069 0
M  V30 2999 H 291.321 -1.01374 -4.74185 0
M  V30 3000 N 292.664 1.56529 -0.183458 0
M  V30 3001 C 293.612 2.19873 0.758845 0
M  V30 3002 C 294.606 1.16638 1.22849 0
M  V30 3003 O 295.812 1.3481 1.19274 0
M  V30 3004 H 292.187 0.7045 0.263029 0
M  V30 3005 H 294.158 2.97724 0.200755 0
M  V30 3006 C 292.907 2.86314 1.9728 0
M  V30 3007 H 292.23 3.65487 1.62047 0
M  V30 3008 H 293.67 3.3409 2.61075 0
M  V30 3009 C 292.129 1.86729 2.80418 0
M  V30 3010 O 292.659 1.36031 3.77966 0
M  V30 3011 N 290.865 1.55216 2.45675 0
M  V30 3012 H 290.412 1.96636 1.66409 0
M  V30 3013 H 290.37 0.888388 3.01588 0
M  V30 3014 N 294.142 -0.090211 1.57342 0
M  V30 3015 C 295.39 -0.791241 1.85967 0
M  V30 3016 C 295.711 -1.7903 0.772859 0
M  V30 3017 O 294.981 -1.94872 -0.200398 0
M  V30 3018 H 293.561 -0.295205 0.686195 0
M  V30 3019 H 296.223 -0.0706782 1.94772 0
M  V30 3020 H 295.319 -1.31882 2.82867 0
M  V30 3021 N 295.62 -1.53406 -0.361157 0
M  V30 3022 C 296.567 -1.80156 -1.44265 0
M  V30 3023 C 297.537 -0.646183 -1.53015 0
M  V30 3024 O 298.722 -0.888818 -1.68833 0
M  V30 3025 C 295.862 -2.00116 -2.81154 0
M  V30 3026 C 294.975 -3.27833 -2.81335 0
M  V30 3027 C 294.11 -3.37957 -4.09828 0
M  V30 3028 C 293.149 -4.59689 -4.04168 0
M  V30 3029 N 292.286 -4.66942 -5.24318 0
M  V30 3030 H 297.126 -2.72438 -1.20754 0
M  V30 3031 H 294.663 -1.34954 -0.585296 0
M  V30 3032 H 296.621 -2.09677 -3.60682 0
M  V30 3033 H 295.251 -1.11167 -3.03054 0
M  V30 3034 H 294.303 -3.27204 -1.94014 0
M  V30 3035 H 295.615 -4.17442 -2.73027 0
M  V30 3036 H 294.769 -3.46853 -4.97773 0
M  V30 3037 H 293.508 -2.46372 -4.20894 0
M  V30 3038 H 292.513 -4.50889 -3.14609 0
M  V30 3039 H 293.738 -5.5262 -3.947 0
M  V30 3040 H 291.684 -3.7826 -5.35962 0
M  V30 3041 H 291.601 -5.50462 -5.18197 0
M  V30 3042 H 292.869 -4.80127 -6.14084 0
M  V30 3043 N 297.098 0.621204 -1.44841 0
M  V30 3044 C 298.344 1.3826 -1.48365 0
M  V30 3045 C 298.677 1.93831 -0.119624 0
M  V30 3046 O 297.952 1.74251 0.864111 0
M  V30 3047 C 298.235 2.54058 -2.55199 0
M  V30 3048 C 298.088 2.03772 -4.00995 0
M  V30 3049 C 299.407 3.56225 -2.58442 0
M  V30 3050 H 296.526 0.501374 -0.540179 0
M  V30 3051 H 299.168 0.7015 -1.76576 0
M  V30 3052 H 297.318 3.12162 -2.31274 0
M  V30 3053 H 298.99 1.50423 -4.36086 0
M  V30 3054 H 297.233 1.34876 -4.12299 0
M  V30 3055 H 297.904 2.87185 -4.71411 0
M  V30 3056 H 300.38 3.07939 -2.79844 0
M  V30 3057 H 299.256 4.34756 -3.3508 0
M  V30 3058 H 299.517 4.10949 -1.63013 0
M  V30 3059 N 298.576 1.31904 0.862503 0
M  V30 3060 C 299.853 1.12644 1.59908 0
M  V30 3061 C 300.233 -0.316104 2.0872 0
M  V30 3062 O 299.581 -1.31145 1.87118 0
M  V30 3063 C 299.791 2.1472 2.7513 0
M  V30 3064 C 301.139 2.47637 3.44907 0
M  V30 3065 O 302.163 2.13205 2.85346 0
M  V30 3066 O 301.022 3.06632 4.52371 0
M  V30 3067 H 298.116 0.43416 0.703871 0
M  V30 3068 H 300.662 1.43408 0.907314 0
M  V30 3069 H 299.434 3.1172 2.3653 0
M  V30 3070 H 299.057 1.84905 3.51989 0
M  V30 3071 N 300.054 -1.07777 1.14986 0
M  V30 3072 C 301.017 -2.13041 0.845358 0
M  V30 3073 C 302.017 -1.60071 -0.152931 0
M  V30 3074 O 303.207 -1.74033 0.0761879 0
M  V30 3075 C 300.339 -3.39896 0.261383 0
M  V30 3076 H 301.532 -2.41485 1.77834 0
M  V30 3077 H 299.085 -1.23595 0.956757 0
M  V30 3078 H 299.82 -3.17091 -0.68 0
M  V30 3079 H 299.605 -3.79642 0.980514 0
M  V30 3080 H 301.095 -4.17548 0.0657687 0
M  V30 3081 N 301.532 -0.945985 -1.26051 0
M  V30 3082 C 302.779 -0.596118 -1.93527 0
M  V30 3083 C 303.107 0.865559 -1.74179 0
M  V30 3084 O 302.362 1.63524 -1.0751 0
M  V30 3085 C 302.661 -0.890475 -3.46129 0
M  V30 3086 C 302.327 -2.3368 -3.85622 0
M  V30 3087 C 300.989 -2.73216 -3.96114 0
M  V30 3088 C 303.341 -3.27648 -4.05334 0
M  V30 3089 C 300.669 -4.05806 -4.2372 0
M  V30 3090 C 303.021 -4.59841 -4.3443 0
M  V30 3091 C 301.685 -4.99185 -4.43137 0
M  V30 3092 H 300.955 -0.218135 -0.708165 0
M  V30 3093 H 303.602 -1.1934 -1.49768 0
M  V30 3094 H 301.907 -0.210711 -3.91233 0
M  V30 3095 H 303.604 -0.598478 -3.96509 0
M  V30 3096 H 300.194 -2.02015 -3.78005 0
M  V30 3097 H 304.378 -2.98298 -3.96651 0
M  V30 3098 H 299.634 -4.35945 -4.28675 0
M  V30 3099 H 303.808 -5.32641 -4.48628 0
M  V30 3100 H 301.435 -6.01952 -4.64282 0
M  V30 3101 N 303.011 1.40521 -0.713556 0
M  V30 3102 C 304.251 2.02783 -0.256584 0
M  V30 3103 C 304.615 1.55352 1.12827 0
M  V30 3104 O 305.816 2.09663 1.68211 0
M  V30 3105 C 304.087 3.5586 -0.331414 0
M  V30 3106 S 305.646 4.38773 0.0488703 0
M  V30 3107 H 302.464 0.703655 -0.101934 0
M  V30 3108 H 305.066 1.71674 -0.935325 0
M  V30 3109 H 303.77 3.87874 -1.34098 0
M  V30 3110 H 303.301 3.91695 0.365873 0
M  V30 3111 H 305.316 4.79633 1.2715 0
M  V30 3112 N 304.489 0.459591 1.5075 0
M  V30 3113 C 305.737 -0.0991532 2.01857 0
M  V30 3114 C 306.058 -1.41247 1.34441 0
M  V30 3115 O 305.328 -1.89775 0.486022 0
M  V30 3116 H 303.908 -0.039633 0.745948 0
M  V30 3117 H 306.57 0.607387 1.85194 0
M  V30 3118 H 305.666 -0.258998 3.11023 0
M  V30 3119 N 305.967 -1.56429 0.191757 0
M  V30 3120 C 307.215 -1.97095 -0.447006 0
M  V30 3121 C 307.536 -1.07967 -1.62383 0
M  V30 3122 O 306.806 -0.150248 -1.95323 0
M  V30 3123 H 305.386 -0.727832 -0.168135 0
M  V30 3124 H 308.048 -1.92911 0.27771 0
M  V30 3125 H 307.144 -3.01848 -0.793371 0
M  V30 3126 N 307.445 0.0818655 -1.57387 0
M  V30 3127 C 308.67 0.799946 -1.91352 0
M  V30 3128 C 309.095 1.70833 -0.787258 0
M  V30 3129 O 308.453 1.79419 0.26048 0
M  V30 3130 C 308.501 1.57812 -3.24234 0
M  V30 3131 O 307.605 2.68806 -3.12757 0
M  V30 3132 H 306.946 0.21891 -0.626877 0
M  V30 3133 H 309.476 0.0531256 -2.04531 0
M  V30 3134 H 309.486 1.95952 -3.57864 0
M  V30 3135 H 308.161 0.911548 -4.05788 0
M  V30 3136 H 306.738 2.33597 -2.90666 0
M  V30 3137 N 308.923 1.53595 0.353017 0
M  V30 3138 C 310.172 1.69603 1.09168 0
M  V30 3139 C 310.485 0.460925 1.90092 0
M  V30 3140 O 311.691 0.501774 2.66823 0
M  V30 3141 C 310.147 2.99872 1.9901 0
M  V30 3142 C 309.755 4.30687 1.23339 0
M  V30 3143 C 311.499 3.25246 2.72792 0
M  V30 3144 C 309.406 5.52036 2.12156 0
M  V30 3145 H 308.336 0.631966 0.411261 0
M  V30 3146 H 310.987 1.80096 0.351802 0
M  V30 3147 H 309.369 2.83212 2.7678 0
M  V30 3148 H 310.543 4.58019 0.505456 0
M  V30 3149 H 308.858 4.11853 0.613663 0
M  V30 3150 H 311.455 4.13095 3.39495 0
M  V30 3151 H 311.798 2.41846 3.38846 0
M  V30 3152 H 312.331 3.42638 2.021 0
M  V30 3153 H 309.07 6.37951 1.50659 0
M  V30 3154 H 308.59 5.28966 2.82764 0
M  V30 3155 H 310.269 5.87313 2.71427 0
M  V30 3156 N 310.401 -0.613514 1.45168 0
M  V30 3157 C 311.647 -1.37471 1.49096 0
M  V30 3158 C 311.98 -1.93765 0.129901 0
M  V30 3159 O 311.255 -1.74707 -0.854858 0
M  V30 3160 C 311.538 -2.52701 2.56542 0
M  V30 3161 C 311.391 -2.01643 4.0207 0
M  V30 3162 C 312.71 -3.54849 2.60327 0
M  V30 3163 H 309.829 -0.498502 0.54283 0
M  V30 3164 H 312.471 -0.692125 1.76945 0
M  V30 3165 H 310.621 -3.10931 2.32926 0
M  V30 3166 H 312.293 -1.48108 4.36877 0
M  V30 3167 H 310.536 -1.32688 4.13009 0
M  V30 3168 H 311.207 -2.84681 4.72928 0
M  V30 3169 H 313.683 -3.0645 2.81474 0
M  V30 3170 H 312.559 -4.32973 3.37381 0
M  V30 3171 H 312.82 -4.10079 1.6519 0
M  V30 3172 N 311.879 -1.3236 -0.855495 0
M  V30 3173 C 312.827 -1.2118 -1.9854 0
M  V30 3174 C 313.821 -0.116788 -1.68997 0
M  V30 3175 O 315.027 -0.279657 -1.77814 0
M  V30 3176 H 311.402 -0.375608 -0.651477 0
M  V30 3177 H 313.373 -2.16743 -2.05098 0
M  V30 3178 C 312.122 -0.950849 -3.34446 0
M  V30 3179 H 311.445 -1.78563 -3.57708 0
M  V30 3180 H 312.885 -0.912863 -4.14057 0
M  V30 3181 C 311.344 0.346404 -3.35114 0
M  V30 3182 O 311.874 1.35855 -3.7803 0
M  V30 3183 N 310.08 0.36808 -2.88259 0
M  V30 3184 H 309.627 -0.456102 -2.5353 0
M  V30 3185 H 309.585 1.23591 -2.89089 0
M  V30 3186 N 313.357 1.07166 -1.15556 0
M  V30 3187 C 314.267 2.17947 -0.868116 0
M  V30 3188 C 315.283 1.73297 0.156297 0
M  V30 3189 O 316.459 2.01392 -0.0182327 0
M  V30 3190 C 313.524 3.44789 -0.36355 0
M  V30 3191 C 312.585 4.03996 -1.45209 0
M  V30 3192 C 311.818 5.24783 -0.971508 0
M  V30 3193 O 312.041 5.70109 0.182194 0
M  V30 3194 O 310.975 5.75715 -1.75603 0
M  V30 3195 H 314.801 2.4503 -1.79427 0
M  V30 3196 H 312.386 1.16539 -0.934824 0
M  V30 3197 H 314.268 4.21307 -0.0887113 0
M  V30 3198 H 312.943 3.19253 0.534708 0
M  V30 3199 H 311.85 3.29009 -1.78056 0
M  V30 3200 H 313.183 4.33808 -2.32533 0
M  V30 3201 N 314.835 0.952656 1.25548 0
M  V30 3202 C 315.782 0.47008 2.25962 0
M  V30 3203 C 316.752 -0.476384 1.59122 0
M  V30 3204 O 317.937 -0.39007 1.8677 0
M  V30 3205 C 315.077 -0.247881 3.44209 0
M  V30 3206 C 314.19 0.735591 4.25691 0
M  V30 3207 C 313.325 -0.0047306 5.312 0
M  V30 3208 C 312.364 0.969805 6.04368 0
M  V30 3209 N 311.501 0.260486 7.01617 0
M  V30 3210 H 316.341 1.33126 2.66611 0
M  V30 3211 H 313.878 0.66765 1.31076 0
M  V30 3212 H 315.836 -0.680695 4.1161 0
M  V30 3213 H 314.466 -1.07312 3.0444 0
M  V30 3214 H 313.518 1.28689 3.57971 0
M  V30 3215 H 314.83 1.47934 4.76358 0
M  V30 3216 H 313.984 -0.496275 6.04667 0
M  V30 3217 H 312.723 -0.781282 4.81401 0
M  V30 3218 H 311.728 1.47237 5.29718 0
M  V30 3219 H 312.953 1.74655 6.56256 0
M  V30 3220 H 310.899 -0.497364 6.54112 0
M  V30 3221 H 310.816 0.943362 7.50091 0
M  V30 3222 H 312.084 -0.209587 7.79218 0
M  V30 3223 N 316.313 -1.40141 0.720998 0
M  V30 3224 C 317.559 -2.01572 0.272075 0
M  V30 3225 C 317.914 -1.5616 -1.12391 0
M  V30 3226 O 317.207 -0.774198 -1.75262 0
M  V30 3227 C 317.401 -3.56165 0.296892 0
M  V30 3228 C 317.23 -4.16584 1.69375 0
M  V30 3229 C 316 -4.49783 2.30269 0
M  V30 3230 C 318.198 -4.41076 2.64493 0
M  V30 3231 N 316.18 -4.95626 3.62254 0
M  V30 3232 C 317.551 -4.88971 3.81192 0
M  V30 3233 C 319.606 -4.23122 2.62435 0
M  V30 3234 C 318.309 -5.20796 4.96149 0
M  V30 3235 C 320.335 -4.56052 3.76524 0
M  V30 3236 C 319.697 -5.04141 4.91956 0
M  V30 3237 H 315.796 -0.768343 0.145511 0
M  V30 3238 H 318.38 -1.70287 0.943959 0
M  V30 3239 H 316.551 -3.86868 -0.344578 0
M  V30 3240 H 318.283 -4.04346 -0.169254 0
M  V30 3241 H 315.038 -4.37101 1.82318 0
M  V30 3242 H 315.462 -5.22923 4.29977 0
M  V30 3243 H 320.104 -3.85158 1.74393 0
M  V30 3244 H 317.822 -5.57672 5.84831 0
M  V30 3245 H 321.408 -4.43796 3.76213 0
M  V30 3246 H 320.288 -5.29142 5.78774 0
M  V30 3247 N 317.792 -0.46758 -1.50504 0
M  V30 3248 C 319.041 0.0902868 -2.01498 0
M  V30 3249 C 319.354 1.411 -1.35463 0
M  V30 3250 O 320.56 2.0536 -1.77594 0
M  V30 3251 C 319.016 0.21142 -3.59278 0
M  V30 3252 C 318.624 -1.10065 -4.34269 0
M  V30 3253 C 320.368 0.721433 -4.18325 0
M  V30 3254 C 318.275 -0.943505 -5.83825 0
M  V30 3255 H 317.205 0.037517 -0.753066 0
M  V30 3256 H 319.856 -0.601943 -1.73346 0
M  V30 3257 H 318.238 0.967352 -3.84003 0
M  V30 3258 H 319.412 -1.86726 -4.21272 0
M  V30 3259 H 317.727 -1.5415 -3.86816 0
M  V30 3260 H 320.324 0.85598 -5.27804 0
M  V30 3261 H 320.667 1.71186 -3.79475 0
M  V30 3262 H 321.2 0.0229843 -3.97793 0
M  V30 3263 H 317.939 -1.90719 -6.27141 0
M  V30 3264 H 317.459 -0.217213 -5.99407 0
M  V30 3265 H 319.138 -0.608715 -6.4413 0
M  V30 3266 N 319.27 1.56325 -0.20005 0
M  V30 3267 C 320.516 1.98012 0.438059 0
M  V30 3268 C 320.849 1.08702 1.60927 0
M  V30 3269 O 320.124 0.140064 1.93995 0
M  V30 3270 C 320.407 3.48841 0.893419 0
M  V30 3271 C 320.26 4.48928 -0.279947 0
M  V30 3272 C 321.579 4.03498 1.75719 0
M  V30 3273 H 318.698 0.719918 0.157757 0
M  V30 3274 H 321.34 1.87743 -0.291968 0
M  V30 3275 H 319.49 3.57723 1.51547 0
M  V30 3276 H 321.162 4.52079 -0.91772 0
M  V30 3277 H 319.405 4.23694 -0.930919 0
M  V30 3278 H 320.076 5.5194 0.0812601 0
M  V30 3279 H 322.552 3.97427 1.23253 0
M  V30 3280 H 321.428 5.09393 2.04476 0
M  V30 3281 H 321.689 3.4906 2.71311 0
M  V30 3282 N 320.748 -0.0735177 1.57428 0
M  V30 3283 C 321.976 -0.785969 1.9139 0
M  V30 3284 C 322.391 -1.71207 0.795847 0
M  V30 3285 O 321.748 -1.81033 -0.230915 0
M  V30 3286 C 321.799 -1.58107 3.25091 0
M  V30 3287 O 321.52 -0.6922 4.32597 0
M  V30 3288 C 323.021 -2.39467 3.73055 0
M  V30 3289 H 320.241 -0.223558 0.632663 0
M  V30 3290 H 322.785 -0.044302 2.04452 0
M  V30 3291 H 320.94 -2.27503 3.13562 0
M  V30 3292 H 321.354 -1.24504 5.09508 0
M  V30 3293 H 322.828 -2.90716 4.69242 0
M  V30 3294 H 323.305 -3.18913 3.01979 0
M  V30 3295 H 323.911 -1.7523 3.87523 0
M  V30 3296 N 322.226 -1.5378 -0.344866 0
M  V30 3297 C 323.189 -1.80981 -1.40637 0
M  V30 3298 C 324.189 -0.680816 -1.45676 0
M  V30 3299 O 325.379 -0.949095 -1.46075 0
M  V30 3300 C 322.511 -1.95063 -2.79577 0
M  V30 3301 H 323.704 -2.75803 -1.17783 0
M  V30 3302 H 321.257 -1.45173 -0.579181 0
M  V30 3303 H 321.992 -1.02379 -3.07716 0
M  V30 3304 H 321.777 -2.77198 -2.77315 0
M  V30 3305 H 323.267 -2.17629 -3.56409 0
M  V30 3306 N 323.704 0.605807 -1.45491 0
M  V30 3307 C 324.667 1.69836 -1.5391 0
M  V30 3308 C 325.667 1.55261 -0.418424 0
M  V30 3309 O 326.857 1.60296 -0.681965 0
M  V30 3310 C 323.989 3.09117 -1.43734 0
M  V30 3311 H 325.182 1.63738 -2.51257 0
M  V30 3312 H 322.735 0.821689 -1.32959 0
M  V30 3313 H 323.47 3.20791 -0.475788 0
M  V30 3314 H 323.255 3.21104 -2.25021 0
M  V30 3315 H 324.745 3.88696 -1.52661 0
M  V30 3316 N 325.182 1.32811 0.848464 0
M  V30 3317 C 326.132 1.18842 1.94578 0
M  V30 3318 C 327.116 0.0937517 1.60627 0
M  V30 3319 O 328.308 0.320887 1.74067 0
M  V30 3320 C 325.437 0.91999 3.30743 0
M  V30 3321 C 324.523 2.05665 3.70894 0
M  V30 3322 N 324.914 3.30579 3.8282 0
M  V30 3323 C 323.212 1.9612 4.00566 0
M  V30 3324 C 323.913 4.05067 4.17487 0
M  V30 3325 N 322.889 3.33419 4.2934 0
M  V30 3326 H 326.691 2.13536 2.0194 0
M  V30 3327 H 324.205 1.2468 1.0406 0
M  V30 3328 H 326.202 0.800859 4.09136 0
M  V30 3329 H 324.862 -0.0185076 3.24695 0
M  V30 3330 H 325.873 3.65441 3.66978 0
M  V30 3331 H 322.55 1.09871 4.02784 0
M  V30 3332 H 323.94 5.12815 4.34131 0
M  V30 3333 N 326.66 -1.06551 1.16123 0
M  V30 3334 C 327.9 -1.80889 0.951766 0
M  V30 3335 C 328.264 -1.85062 -0.511465 0
M  V30 3336 O 329.465 -2.55353 -0.83954 0
M  V30 3337 C 327.736 -3.21609 1.55893 0
M  V30 3338 S 329.295 -4.12593 1.49373 0
M  V30 3339 H 326.113 -0.623156 0.342341 0
M  V30 3340 H 328.715 -1.27943 1.47821 0
M  V30 3341 H 327.419 -3.16165 2.61664 0
M  V30 3342 H 326.95 -3.79631 1.0317 0
M  V30 3343 H 328.965 -4.93753 0.492196 0
M  V30 3344 N 328.138 -0.959301 -1.25041 0
M  V30 3345 C 329.384 -0.617525 -1.9317 0
M  V30 3346 C 329.717 0.843981 -1.74902 0
M  V30 3347 O 328.992 1.60615 -1.09696 0
M  V30 3348 C 329.275 -0.982736 -3.46431 0
M  V30 3349 C 329.128 -2.50032 -3.73904 0
M  V30 3350 C 330.447 -0.511176 -4.37121 0
M  V30 3351 H 327.566 -0.22582 -0.701552 0
M  V30 3352 H 330.208 -1.19679 -1.4757 0
M  V30 3353 H 328.358 -0.489806 -3.854 0
M  V30 3354 H 330.03 -3.06737 -3.44544 0
M  V30 3355 H 328.273 -2.93598 -3.19348 0
M  V30 3356 H 328.944 -2.70635 -4.81103 0
M  V30 3357 H 331.42 -0.934075 -4.0548 0
M  V30 3358 H 330.296 -0.795361 -5.43107 0
M  V30 3359 H 330.557 0.588834 -4.38161 0
M  V30 3360 N 329.616 1.39756 -0.72842 0
M  V30 3361 C 330.526 2.34444 -0.0855374 0
M  V30 3362 C 331.542 1.57976 0.729356 0
M  V30 3363 O 332.718 1.90301 0.659346 0
M  V30 3364 C 329.783 3.36965 0.815798 0
M  V30 3365 C 328.844 4.29299 -0.0105996 0
M  V30 3366 C 328.077 5.26923 0.84781 0
M  V30 3367 O 328.3 5.30859 2.08673 0
M  V30 3368 O 327.234 6.01249 0.279969 0
M  V30 3369 H 331.06 2.91065 -0.866892 0
M  V30 3370 H 328.645 1.4117 -0.48902 0
M  V30 3371 H 330.527 3.99804 1.33171 0
M  V30 3372 H 329.202 2.82739 1.57608 0
M  V30 3373 H 328.109 3.69703 -0.571877 0
M  V30 3374 H 329.442 4.86712 -0.73295 0
M  V30 3375 N 331.094 0.475555 1.50254 0
M  V30 3376 C 332.322 -0.0754493 2.06762 0
M  V30 3377 C 332.737 -1.33111 1.33891 0
M  V30 3378 O 332.094 -1.77846 0.40952 0
M  V30 3379 C 332.145 -0.359008 3.59713 0
M  V30 3380 O 331.866 0.846851 4.29837 0
M  V30 3381 C 333.367 -0.956484 4.32858 0
M  V30 3382 H 330.587 0.00907525 0.670939 0
M  V30 3383 H 333.131 0.665618 1.93364 0
M  V30 3384 H 331.286 -1.05001 3.72899 0
M  V30 3385 H 331.7 0.594162 5.21124 0
M  V30 3386 H 333.174 -1.10463 5.40834 0
M  V30 3387 H 333.651 -1.94775 3.93649 0
M  V30 3388 H 334.257 -0.303723 4.24214 0
M  V30 3389 N 332.573 -1.56217 0.208337 0
M  V30 3390 C 333.821 -1.97558 -0.426076 0
M  V30 3391 C 334.142 -1.09683 -1.61229 0
M  V30 3392 O 333.412 -0.170956 -1.95153 0
M  V30 3393 H 331.992 -0.729575 -0.160405 0
M  V30 3394 H 334.654 -1.92606 0.298155 0
M  V30 3395 H 333.75 -3.02672 -0.761312 0
M  V30 3396 N 334.051 0.0651679 -1.57465 0
M  V30 3397 C 335.297 0.764193 -1.87851 0
M  V30 3398 C 335.63 1.76889 -0.801495 0
M  V30 3399 O 334.905 1.93594 0.187528 0
M  V30 3400 C 335.188 1.46625 -3.28897 0
M  V30 3401 C 335.041 0.477515 -4.47258 0
M  V30 3402 C 336.36 2.4095 -3.68281 0
M  V30 3403 H 333.479 0.276351 -0.683227 0
M  V30 3404 H 336.121 0.0272868 -1.8998 0
M  V30 3405 H 334.271 2.09438 -3.27212 0
M  V30 3406 H 335.943 -0.145922 -4.61069 0
M  V30 3407 H 334.186 -0.206576 -4.33308 0
M  V30 3408 H 334.857 1.0065 -5.42746 0
M  V30 3409 H 337.333 1.88209 -3.71102 0
M  V30 3410 H 336.209 2.87072 -4.67847 0
M  V30 3411 H 336.47 3.26049 -2.98571 0
M  V30 3412 N 335.529 1.53961 0.336706 0
M  V30 3413 C 336.476 1.82428 1.41381 0
M  V30 3414 C 337.446 0.670444 1.51968 0
M  V30 3415 O 338.631 0.915565 1.67398 0
M  V30 3416 C 335.771 2.04564 2.77934 0
M  V30 3417 C 334.884 3.32267 2.76084 0
M  V30 3418 C 334.019 3.44434 4.04399 0
M  V30 3419 C 333.058 4.66061 3.96804 0
M  V30 3420 N 332.195 4.75224 5.16823 0
M  V30 3421 H 337.035 2.74324 1.16405 0
M  V30 3422 H 334.572 1.35869 0.563752 0
M  V30 3423 H 336.53 2.15388 3.57301 0
M  V30 3424 H 335.16 1.15974 3.01247 0
M  V30 3425 H 334.212 3.3025 1.88784 0
M  V30 3426 H 335.524 4.21733 2.66351 0
M  V30 3427 H 334.678 3.54728 4.92192 0
M  V30 3428 H 333.417 2.53037 4.16921 0
M  V30 3429 H 332.422 4.55838 3.07396 0
M  V30 3430 H 333.647 5.58829 3.85858 0
M  V30 3431 H 331.593 3.86739 5.29876 0
M  V30 3432 H 331.51 5.58636 5.09374 0
M  V30 3433 H 332.778 4.89835 6.06367 0
M  V30 3434 N 337.007 -0.598083 1.45811 0
M  V30 3435 C 338.256 -1.35295 1.49594 0
M  V30 3436 C 338.569 -1.95057 0.145679 0
M  V30 3437 O 339.775 -2.71431 0.0612099 0
M  V30 3438 C 338.231 -2.45124 2.63519 0
M  V30 3439 C 337.839 -1.91732 4.04899 0
M  V30 3440 C 339.583 -3.2205 2.76558 0
M  V30 3441 C 337.49 -2.991 5.1019 0
M  V30 3442 H 336.42 -0.508552 0.556679 0
M  V30 3443 H 339.071 -0.639977 1.71978 0
M  V30 3444 H 337.453 -3.19149 2.34435 0
M  V30 3445 H 338.627 -1.24352 4.43704 0
M  V30 3446 H 336.942 -1.27522 3.96393 0
M  V30 3447 H 339.539 -4.0215 3.52391 0
M  V30 3448 H 339.882 -3.73663 1.83526 0
M  V30 3449 H 340.415 -2.55127 3.05213 0
M  V30 3450 H 337.154 -2.52393 6.04961 0
M  V30 3451 H 336.674 -3.65017 4.75944 0
M  V30 3452 H 338.353 -3.63318 5.35359 0
M  V30 3453 N 338.485 -1.33259 -0.841409 0
M  V30 3454 C 339.713 -1.27605 -1.62864 0
M  V30 3455 C 340.128 0.153507 -1.88175 0
M  V30 3456 O 339.485 1.09485 -1.46011 0
M  V30 3457 C 339.536 -2.04596 -2.98031 0
M  V30 3458 O 339.257 -3.41975 -2.73834 0
M  V30 3459 C 340.758 -2.06122 -3.92465 0
M  V30 3460 H 337.978 -0.439718 -0.506842 0
M  V30 3461 H 340.522 -1.75591 -1.04824 0
M  V30 3462 H 338.677 -1.60299 -3.5268 0
M  V30 3463 H 339.091 -3.81549 -3.59889 0
M  V30 3464 H 340.565 -2.64451 -4.84531 0
M  V30 3465 H 341.042 -1.05083 -4.26444 0
M  V30 3466 H 341.648 -2.50427 -3.43753 0
M  V30 3467 N 339.963 1.05934 -1.16686 0
M  V30 3468 C 341.209 1.79065 -0.95203 0
M  V30 3469 C 341.542 1.87147 0.518629 0
M  V30 3470 O 340.817 1.36574 1.38484 0
M  V30 3471 C 341.1 3.23359 -1.58464 0
M  V30 3472 C 340.953 3.23336 -3.12689 0
M  V30 3473 C 342.272 4.21004 -1.28232 0
M  V30 3474 H 339.391 0.65005 -0.34728 0
M  V30 3475 H 342.033 1.23868 -1.44072 0
M  V30 3476 H 340.183 3.70493 -1.16908 0
M  V30 3477 H 341.855 2.84336 -3.6325 0
M  V30 3478 H 340.098 2.61886 -3.4583 0
M  V30 3479 H 340.769 4.25144 -3.52075 0
M  V30 3480 H 343.245 3.8233 -1.64203 0
M  V30 3481 H 342.121 5.20225 -1.75092 0
M  V30 3482 H 342.382 4.41639 -0.201791 0
M  V30 3483 N 341.441 0.965919 1.2453 0
M  V30 3484 C 342.687 0.62776 1.92839 0
M  V30 3485 C 343.02 -0.834694 1.75347 0
M  V30 3486 O 342.295 -1.60031 1.10546 0
M  V30 3487 C 342.578 1.00109 3.45905 0
M  V30 3488 C 342.431 2.52011 3.72573 0
M  V30 3489 C 343.75 0.53435 4.36844 0
M  V30 3490 H 340.869 0.229537 0.700344 0
M  V30 3491 H 343.511 1.2046 1.46933 0
M  V30 3492 H 341.661 0.510238 3.85135 0
M  V30 3493 H 343.333 3.08559 3.42912 0
M  V30 3494 H 341.576 2.95287 3.17786 0
M  V30 3495 H 342.247 2.73183 4.79661 0
M  V30 3496 H 344.723 0.955565 4.04979 0
M  V30 3497 H 343.599 0.824152 5.42678 0
M  V30 3498 H 343.86 -0.565589 4.38467 0
M  V30 3499 N 342.919 -1.39368 0.735821 0
M  V30 3500 C 343.882 -2.2896 0.104874 0
M  V30 3501 C 344.882 -1.46347 -0.666274 0
M  V30 3502 O 346.072 -1.67014 -0.49517 0
M  V30 3503 C 343.204 -3.29857 -0.860656 0
M  V30 3504 H 344.397 -2.86259 0.894205 0
M  V30 3505 H 341.95 -1.48029 0.501704 0
M  V30 3506 H 342.685 -2.77615 -1.67631 0
M  V30 3507 H 342.47 -3.9087 -0.310327 0
M  V30 3508 H 343.96 -3.96893 -1.29867 0
M  V30 3509 N 344.397 -0.483516 -1.5 0
M  V30 3510 C 345.645 0.067027 -2.01989 0
M  V30 3511 C 345.966 1.3909 -1.36671 0
M  V30 3512 O 345.236 1.88978 -0.516152 0
M  V30 3513 H 343.816 0.0277606 -0.746484 0
M  V30 3514 H 346.478 -0.636773 -1.84204 0
M  V30 3515 H 345.574 0.209484 -3.11396 0
M  V30 3516 N 345.875 1.56104 -0.216619 0
M  V30 3517 C 346.785 2.23694 0.706982 0
M  V30 3518 C 347.801 1.24295 1.21765 0
M  V30 3519 O 348.977 1.57094 1.2603 0
M  V30 3520 C 346.042 2.8998 1.90033 0
M  V30 3521 C 345.103 4.04708 1.43213 0
M  V30 3522 C 344.336 4.67824 2.56859 0
M  V30 3523 O 344.559 4.29913 3.74874 0
M  V30 3524 O 343.493 5.56905 2.28343 0
M  V30 3525 H 347.319 3.03272 0.161235 0
M  V30 3526 H 344.904 1.49394 0.0136177 0
M  V30 3527 H 346.786 3.31837 2.59735 0
M  V30 3528 H 345.461 2.13365 2.43428 0
M  V30 3529 H 344.368 3.6743 0.70327 0
M  V30 3530 H 345.701 4.83051 0.944615 0
M  V30 3531 N 347.353 -0.0568162 1.57498 0
M  V30 3532 C 348.303 -1.07315 2.01166 0
M  V30 3533 C 349.287 -1.33632 0.896171 0
M  V30 3534 O 350.479 -1.33682 1.16009 0
M  V30 3535 C 347.608 -2.38257 2.47161 0
M  V30 3536 C 346.694 -2.1515 3.65474 0
M  V30 3537 N 347.085 -1.62014 4.7915 0
M  V30 3538 C 345.383 -2.45559 3.72313 0
M  V30 3539 C 346.084 -1.54069 5.60926 0
M  V30 3540 N 345.06 -2.00652 5.05213 0
M  V30 3541 H 348.862 -0.655878 2.86488 0
M  V30 3542 H 346.376 -0.263635 1.60246 0
M  V30 3543 H 348.373 -3.11845 2.76691 0
M  V30 3544 H 347.033 -2.80687 1.63232 0
M  V30 3545 H 348.044 -1.30667 5.01145 0
M  V30 3546 H 344.721 -2.91253 2.99129 0
M  V30 3547 H 346.111 -1.13712 6.62208 0
M  V30 3548 N 348.832 -1.54138 -0.328536 0
M  V30 3549 C 349.78 -1.83894 -1.42428 0
M  V30 3550 C 350.774 -0.710478 -1.53781 0
M  V30 3551 O 351.98 -0.894062 -1.56226 0
M  V30 3552 H 348.355 -0.582837 -0.475189 0
M  V30 3553 H 350.326 -2.75537 -1.14552 0
M  V30 3554 C 349.075 -2.07866 -2.78724 0
M  V30 3555 H 348.398 -2.94158 -2.7076 0
M  V30 3556 H 349.838 -2.32644 -3.54476 0
M  V30 3557 C 348.297 -0.868689 -3.25508 0
M  V30 3558 O 348.827 -0.0754908 -4.01629 0
M  V30 3559 N 347.033 -0.681711 -2.82491 0
M  V30 3560 H 346.58 -1.32838 -2.20708 0
M  V30 3561 H 346.538 0.126374 -3.14146 0
M  V30 3562 N 350.31 0.590341 -1.46126 0
M  V30 3563 C 351.559 1.34499 -1.50309 0
M  V30 3564 C 351.872 1.94977 -0.156021 0
M  V30 3565 O 353.078 2.71395 -0.0756037 0
M  V30 3566 C 351.534 2.43723 -2.64815 0
M  V30 3567 C 351.142 1.89582 -4.0591 0
M  V30 3568 C 352.886 3.20579 -2.78262 0
M  V30 3569 C 350.793 2.9639 -5.11769 0
M  V30 3570 H 349.723 0.505593 -0.559368 0
M  V30 3571 H 352.374 0.630848 -1.72315 0
M  V30 3572 H 350.756 3.17902 -2.36124 0
M  V30 3573 H 351.93 1.21997 -4.44357 0
M  V30 3574 H 350.245 1.25418 -3.97063 0
M  V30 3575 H 352.842 4.00276 -3.54519 0
M  V30 3576 H 353.185 3.72684 -1.85505 0
M  V30 3577 H 353.718 2.53505 -3.06562 0
M  V30 3578 H 350.457 2.49181 -6.06291 0
M  V30 3579 H 349.977 3.62487 -4.77873 0
M  V30 3580 H 351.656 3.60474 -5.37278 0
M  V30 3581 N 351.788 1.33704 0.83433 0
M  V30 3582 C 352.698 1.26382 1.97648 0
M  V30 3583 C 353.714 0.173548 1.73132 0
M  V30 3584 O 354.89 0.397962 1.97429 0
M  V30 3585 C 351.955 1.00769 3.31733 0
M  V30 3586 C 351.016 2.1884 3.69334 0
M  V30 3587 C 350.249 1.9444 4.9702 0
M  V30 3588 O 350.472 0.896961 5.63303 0
M  V30 3589 O 349.406 2.81093 5.32231 0
M  V30 3590 H 353.232 2.22444 2.06767 0
M  V30 3591 H 350.817 1.13795 0.968037 0
M  V30 3592 H 352.699 0.882186 4.12062 0
M  V30 3593 H 351.374 0.0773783 3.23608 0
M  V30 3594 H 350.281 2.36946 2.89495 0
M  V30 3595 H 351.614 3.10221 3.82131 0
M  V30 3596 N 353.266 -1.05314 1.17247 0
M  V30 3597 C 354.176 -2.16538 0.90268 0
M  V30 3598 C 355.192 -1.73523 -0.128707 0
M  V30 3599 O 356.368 -2.01337 0.0502701 0
M  V30 3600 C 353.433 -3.44167 0.418356 0
M  V30 3601 C 352.494 -4.01635 1.51618 0
M  V30 3602 C 351.727 -5.23171 1.05487 0
M  V30 3603 O 351.95 -5.70327 -0.0914715 0
M  V30 3604 O 350.884 -5.72848 1.8474 0
M  V30 3605 H 354.71 -2.42145 1.83302 0
M  V30 3606 H 352.295 -1.15037 0.953246 0
M  V30 3607 H 354.177 -4.21112 0.155726 0
M  V30 3608 H 352.852 -3.20063 -0.48385 0
M  V30 3609 H 351.759 -3.26135 1.83268 0
M  V30 3610 H 353.092 -4.30053 2.39405 0
M  V30 3611 N 354.744 -0.972509 -1.24016 0
M  V30 3612 C 355.972 -0.654803 -1.96265 0
M  V30 3613 C 356.387 0.776708 -1.72083 0
M  V30 3614 O 355.744 1.52171 -1.00748 0
M  V30 3615 C 355.795 -0.92592 -3.49441 0
M  V30 3616 O 355.516 -2.30116 -3.72798 0
M  V30 3617 C 357.017 -0.623068 -4.38899 0
M  V30 3618 H 354.237 -0.243907 -0.6251 0
M  V30 3619 H 356.781 -1.30175 -1.57717 0
M  V30 3620 H 354.936 -0.325108 -3.86033 0
M  V30 3621 H 355.35 -2.38483 -4.67147 0
M  V30 3622 H 356.824 -0.863189 -5.45209 0
M  V30 3623 H 357.301 0.442754 -4.36963 0
M  V30 3624 H 357.907 -1.204 -4.07902 0
M  V30 3625 N 356.222 1.38976 -0.743202 0
M  V30 3626 C 357.132 2.3434 -0.110399 0
M  V30 3627 C 358.148 1.58741 0.712559 0
M  V30 3628 O 359.324 1.9099 0.639125 0
M  V30 3629 C 356.389 3.37812 0.780012 0
M  V30 3630 C 355.45 4.29263 -0.0561319 0
M  V30 3631 C 354.683 5.27793 0.791875 0
M  V30 3632 O 354.906 5.33043 2.03031 0
M  V30 3633 O 353.84 6.01512 0.216183 0
M  V30 3634 H 357.666 2.90129 -0.897714 0
M  V30 3635 H 355.251 1.40643 -0.503966 0
M  V30 3636 H 357.133 4.01194 1.28923 0
M  V30 3637 H 355.808 2.84395 1.546 0
M  V30 3638 H 354.715 3.69076 -0.611056 0
M  V30 3639 H 356.048 4.85907 -0.784531 0
M  V30 3640 N 357.7 0.491464 1.49741 0
M  V30 3641 C 358.65 -0.311086 2.25868 0
M  V30 3642 C 359.634 -0.943857 1.30308 0
M  V30 3643 O 360.826 -0.853035 1.55088 0
M  V30 3644 C 357.955 -1.38059 3.14316 0
M  V30 3645 C 357.041 -0.754541 4.17334 0
M  V30 3646 N 357.432 0.137216 5.05614 0
M  V30 3647 C 355.73 -1.01621 4.34269 0
M  V30 3648 C 356.431 0.494614 5.79593 0
M  V30 3649 N 355.407 -0.135169 5.43432 0
M  V30 3650 H 359.209 0.37555 2.91491 0
M  V30 3651 H 356.723 0.306917 1.59473 0
M  V30 3652 H 358.72 -1.96891 3.67477 0
M  V30 3653 H 357.38 -2.06901 2.50244 0
M  V30 3654 H 358.391 0.50741 5.15408 0
M  V30 3655 H 355.068 -1.69808 3.81407 0
M  V30 3656 H 356.458 1.2236 6.60665 0
M  V30 3657 N 359.178 -1.55987 0.224894 0
M  V30 3658 C 360.406 -2.02784 -0.410665 0
M  V30 3659 C 360.821 -1.10464 -1.53112 0
M  V30 3660 O 360.178 -0.114871 -1.82138 0
M  V30 3661 C 360.229 -3.49087 -0.939165 0
M  V30 3662 O 359.95 -4.37887 0.136614 0
M  V30 3663 C 361.451 -4.11543 -1.64763 0
M  V30 3664 H 358.671 -0.663484 -0.100148 0
M  V30 3665 H 361.215 -2.01614 0.342326 0
M  V30 3666 H 359.37 -3.50861 -1.64242 0
M  V30 3667 H 359.784 -5.23849 -0.261155 0
M  V30 3668 H 361.258 -5.15673 -1.96939 0
M  V30 3669 H 361.735 -3.56736 -2.56195 0
M  V30 3670 H 362.341 -4.13629 -0.989503 0
M  V30 3671 N 360.656 0.0484629 -1.57525 0
M  V30 3672 C 361.566 1.07241 -2.08654 0
M  V30 3673 C 362.582 1.409 -1.02095 0
M  V30 3674 O 363.758 1.50609 -1.33712 0
M  V30 3675 C 360.823 2.36008 -2.5397 0
M  V30 3676 C 359.884 2.09108 -3.7493 0
M  V30 3677 C 359.117 3.31736 -4.18075 0
M  V30 3678 O 359.34 4.41714 -3.60895 0
M  V30 3679 O 358.274 3.18576 -5.10679 0
M  V30 3680 H 362.1 0.667965 -2.96263 0
M  V30 3681 H 359.685 0.26417 -1.47046 0
M  V30 3682 H 361.567 3.11747 -2.83535 0
M  V30 3683 H 360.242 2.75786 -1.69481 0
M  V30 3684 H 359.149 1.31 -3.50414 0
M  V30 3685 H 360.482 1.74198 -4.60343 0
M  V30 3686 N 362.134 1.5431 0.320358 0
M  V30 3687 C 363.066 1.80262 1.41556 0
M  V30 3688 C 364.079 0.684723 1.477 0
M  V30 3689 O 365.268 0.961886 1.50366 0
M  V30 3690 C 362.368 1.90825 2.8007 0
M  V30 3691 C 361.541 3.21023 2.97091 0
M  V30 3692 C 360.6 3.22247 4.15985 0
M  V30 3693 O 359.626 3.95871 4.08992 0
M  V30 3694 N 360.828 2.46258 5.25678 0
M  V30 3695 H 363.593 2.74778 1.19655 0
M  V30 3696 H 361.154 1.53646 0.510358 0
M  V30 3697 H 363.146 1.89067 3.57821 0
M  V30 3698 H 361.716 1.03392 2.95006 0
M  V30 3699 H 360.936 3.35715 2.06614 0
M  V30 3700 H 362.224 4.0698 3.05361 0
M  V30 3701 H 361.622 1.86037 5.34235 0
M  V30 3702 H 360.179 2.50275 6.01835 0
M  V30 3703 N 363.613 -0.582584 1.46437 0
M  V30 3704 C 364.56 -1.69164 1.5701 0
M  V30 3705 C 365.53 -1.60847 0.414403 0
M  V30 3706 O 366.715 -1.80058 0.631171 0
M  V30 3707 C 363.855 -3.075 1.56646 0
M  V30 3708 C 362.968 -3.2644 2.82951 0
M  V30 3709 C 362.103 -4.55026 2.7409 0
M  V30 3710 C 361.142 -4.6731 3.95333 0
M  V30 3711 N 360.279 -5.87221 3.84858 0
M  V30 3712 H 365.119 -1.59464 2.51744 0
M  V30 3713 H 362.656 -0.777186 1.24893 0
M  V30 3714 H 364.614 -3.8757 1.5442 0
M  V30 3715 H 363.244 -3.16096 0.654439 0
M  V30 3716 H 362.296 -2.39974 2.95155 0
M  V30 3717 H 363.608 -3.31385 3.72808 0
M  V30 3718 H 362.762 -5.43324 2.6997 0
M  V30 3719 H 361.501 -4.52519 1.81873 0
M  V30 3720 H 360.506 -3.77429 3.99784 0
M  V30 3721 H 361.731 -4.71595 4.88646 0
M  V30 3722 H 359.677 -5.85712 2.95427 0
M  V30 3723 H 359.594 -5.93435 4.6837 0
M  V30 3724 H 360.862 -6.7795 3.84713 0
M  V30 3725 N 365.091 -1.34144 -0.827227 0
M  V30 3726 C 366.507 -1.13732 -1.11969 0
M  V30 3727 C 366.707 0.0640463 -2.01398 0
M  V30 3728 O 365.763 0.740856 -2.41387 0
M  V30 3729 C 367.076 -2.43047 -1.77055 0
M  V30 3730 C 368.624 -2.49063 -1.89569 0
M  V30 3731 C 369.099 -3.78369 -2.58072 0
M  V30 3732 N 370.59 -3.79505 -2.65575 0
M  V30 3733 C 371.325 -4.76274 -3.19297 0
M  V30 3734 N 370.821 -5.83424 -3.73616 0
M  V30 3735 N 372.614 -4.63735 -3.17658 0
M  V30 3736 H 364.765 -2.11126 -0.232296 0
M  V30 3737 H 367.028 -0.933424 -0.165602 0
M  V30 3738 H 366.734 -3.31025 -1.18807 0
M  V30 3739 H 366.608 -2.56066 -2.76966 0
M  V30 3740 H 368.995 -1.61527 -2.46968 0
M  V30 3741 H 369.076 -2.39975 -0.885745 0
M  V30 3742 H 368.72 -4.66293 -2.01329 0
M  V30 3743 H 368.65 -3.84737 -3.59562 0
M  V30 3744 H 371.141 -3.02074 -2.27068 0
M  V30 3745 H 371.454 -6.53282 -4.12846 0
M  V30 3746 H 369.799 -5.87143 -3.71871 0
M  V30 3747 H 372.99 -3.79177 -2.74486 0
M  V30 3748 H 373.163 -5.39318 -3.59221 0
M  V30 3749 N 366.569 1.04691 -1.17803 0
M  V30 3750 C 367.517 2.14665 -0.895635 0
M  V30 3751 C 368.511 1.68806 0.141679 0
M  V30 3752 O 369.717 1.79999 -0.00587914 0
M  V30 3753 H 366.092 0.701038 -0.272121 0
M  V30 3754 H 368.063 2.35685 -1.83017 0
M  V30 3755 C 366.812 3.45019 -0.430962 0
M  V30 3756 H 366.135 3.8071 -1.22064 0
M  V30 3757 H 367.575 4.23125 -0.272301 0
M  V30 3758 C 366.034 3.25943 0.852207 0
M  V30 3759 O 366.564 3.5296 1.91786 0
M  V30 3760 N 364.77 2.79304 0.802346 0
M  V30 3761 H 364.317 2.57518 -0.0650788 0
M  V30 3762 H 364.275 2.66921 1.66134 0
M  V30 3763 N 368.047 0.979072 1.23499 0
M  V30 3764 C 369.293 0.648178 1.92163 0
M  V30 3765 C 369.626 -0.816049 1.76222 0
M  V30 3766 O 368.901 -1.58849 1.12237 0
M  V30 3767 C 369.184 1.03773 3.44824 0
M  V30 3768 C 369.037 2.55948 3.69879 0
M  V30 3769 C 370.356 0.580653 4.36253 0
M  V30 3770 H 367.475 0.236952 0.69787 0
M  V30 3771 H 370.117 1.22012 1.45647 0
M  V30 3772 H 368.267 0.551058 3.84572 0
M  V30 3773 H 369.939 3.12179 3.3962 0
M  V30 3774 H 368.182 2.98641 3.14636 0
M  V30 3775 H 368.853 2.78255 4.76737 0
M  V30 3776 H 371.329 0.998465 4.03943 0
M  V30 3777 H 370.205 0.881663 5.41773 0
M  V30 3778 H 370.466 -0.519052 4.39042 0
M  V30 3779 N 369.525 -1.3858 0.750561 0
M  V30 3780 C 370.774 -1.99424 0.302172 0
M  V30 3781 C 371.087 -1.60254 -1.12152 0
M  V30 3782 O 372.293 -2.14046 -1.67023 0
M  V30 3783 C 370.749 -3.56558 0.489307 0
M  V30 3784 C 370.357 -4.04682 1.92189 0
M  V30 3785 C 372.101 -4.24374 0.103478 0
M  V30 3786 C 370.008 -5.54446 2.05775 0
M  V30 3787 H 368.938 -0.746046 0.10923 0
M  V30 3788 H 371.589 -1.58383 0.92667 0
M  V30 3789 H 369.971 -3.95472 -0.204329 0
M  V30 3790 H 371.145 -3.77065 2.64875 0
M  V30 3791 H 369.46 -3.4958 2.26236 0
M  V30 3792 H 372.057 -5.34384 0.183787 0
M  V30 3793 H 372.4 -4.05468 -0.943481 0
M  V30 3794 H 372.933 -3.90688 0.748854 0
M  V30 3795 H 369.672 -5.78252 3.08714 0
M  V30 3796 H 369.192 -5.83816 1.37546 0
M  V30 3797 H 370.871 -6.20099 1.84626 0
M  V30 3798 N 371.003 -0.499398 -1.49478 0
M  V30 3799 C 372.419 -0.155261 -1.58843 0
M  V30 3800 C 372.619 1.34008 -1.50479 0
M  V30 3801 O 371.675 2.11589 -1.37791 0
M  V30 3802 C 372.988 -0.730636 -2.91689 0
M  V30 3803 C 374.536 -0.696599 -3.0515 0
M  V30 3804 C 375.011 -1.25001 -4.40612 0
M  V30 3805 N 376.502 -1.21064 -4.47099 0
M  V30 3806 C 377.237 -1.60905 -5.50361 0
M  V30 3807 N 376.733 -2.08331 -6.60735 0
M  V30 3808 N 378.526 -1.52331 -5.41065 0
M  V30 3809 H 370.677 -1.47162 -1.53158 0
M  V30 3810 H 372.94 -0.610309 -0.725415 0
M  V30 3811 H 372.646 -1.77928 -3.03372 0
M  V30 3812 H 372.52 -0.190161 -3.7672 0
M  V30 3813 H 374.907 0.343204 -2.93097 0
M  V30 3814 H 374.988 -1.2742 -2.21806 0
M  V30 3815 H 374.632 -2.28859 -4.53416 0
M  V30 3816 H 374.562 -0.64836 -5.22593 0
M  V30 3817 H 377.053 -0.863128 -3.67911 0
M  V30 3818 H 377.366 -2.36805 -7.35624 0
M  V30 3819 H 375.711 -2.12304 -6.6178 0
M  V30 3820 H 378.902 -1.151 -4.53729 0
M  V30 3821 H 379.075 -1.83704 -6.21415 0
M  V30 3822 N 372.481 1.55866 -0.233164 0
M  V30 3823 C 373.73 1.97779 0.39579 0
M  V30 3824 C 374.043 1.12419 1.60066 0
M  V30 3825 O 375.249 1.44283 2.29988 0
M  V30 3826 C 373.705 3.5188 0.755556 0
M  V30 3827 C 373.313 4.45959 -0.427152 0
M  V30 3828 C 375.057 4.02479 1.34946 0
M  V30 3829 C 372.964 5.91383 -0.0443043 0
M  V30 3830 H 371.894 0.738592 0.15165 0
M  V30 3831 H 374.545 1.80486 -0.331212 0
M  V30 3832 H 372.927 3.64816 1.5403 0
M  V30 3833 H 374.101 4.44776 -1.20462 0
M  V30 3834 H 372.416 4.05765 -0.935068 0
M  V30 3835 H 375.013 5.08637 1.649 0
M  V30 3836 H 375.356 3.49014 2.26925 0
M  V30 3837 H 375.889 3.92813 0.62791 0
M  V30 3838 H 372.628 6.48857 -0.930874 0
M  V30 3839 H 372.148 5.95734 0.697238 0
M  V30 3840 H 373.827 6.45893 0.378334 0
M  V30 3841 N 373.959 -0.0401083 1.57549 0
M  V30 3842 C 375.208 -0.732108 1.87944 0
M  V30 3843 C 375.521 -1.77107 0.830206 0
M  V30 3844 O 376.727 -2.51488 1.02302 0
M  V30 3845 C 375.183 -1.35315 3.33494 0
M  V30 3846 C 374.791 -0.351105 4.46622 0
M  V30 3847 C 376.535 -2.02566 3.73051 0
M  V30 3848 C 374.442 -0.979859 5.83226 0
M  V30 3849 H 373.372 -0.277188 0.701201 0
M  V30 3850 H 376.023 0.0138501 1.83495 0
M  V30 3851 H 374.405 -2.14844 3.32653 0
M  V30 3852 H 375.579 0.416674 4.58912 0
M  V30 3853 H 373.894 0.218708 4.15825 0
M  V30 3854 H 376.491 -2.50441 4.72423 0
M  V30 3855 H 376.834 -2.83904 3.04474 0
M  V30 3856 H 377.367 -1.29827 3.76018 0
M  V30 3857 H 374.106 -0.206135 6.55176 0
M  V30 3858 H 373.626 -1.71774 5.74677 0
M  V30 3859 H 375.305 -1.49046 6.29599 0
M  V30 3860 N 375.437 -1.54477 -0.31217 0
M  V30 3861 C 376.848 -1.64344 -0.885891 0
M  V30 3862 C 377.199 -0.54485 -1.88483 0
M  V30 3863 O 376.324 0.320387 -2.14015 0
M  V30 3864 C 376.919 -2.97908 -1.61357 0
M  V30 3865 C 375.478 -3.09933 -2.13585 0
M  V30 3866 C 374.625 -2.59971 -0.964897 0
M  V30 3867 H 377.576 -1.58448 -0.0894528 0
M  V30 3868 H 377.597 -2.88706 -2.47848 0
M  V30 3869 H 377.109 -3.77845 -0.886277 0
M  V30 3870 H 375.21 -2.34694 -2.89395 0
M  V30 3871 H 375.323 -4.15916 -2.37804 0
M  V30 3872 H 373.687 -2.16147 -1.34731 0
M  V30 3873 H 374.47 -3.42376 -0.251742 0
M  V30 3874 N 376.915 0.57481 -1.46744 0
M  V30 3875 C 377.865 1.67838 -1.54319 0
M  V30 3876 C 378.849 1.55759 -0.40346 0
M  V30 3877 O 380.041 1.6454 -0.652347 0
M  V30 3878 C 377.17 3.06624 -1.5439 0
M  V30 3879 C 376.256 3.23971 -2.73685 0
M  V30 3880 N 376.647 3.11447 -3.9854 0
M  V30 3881 C 374.945 3.5493 -2.70075 0
M  V30 3882 C 375.646 3.31011 -4.78337 0
M  V30 3883 N 374.622 3.56533 -4.10348 0
M  V30 3884 H 378.424 1.56698 -2.48642 0
M  V30 3885 H 375.938 0.779071 -1.42493 0
M  V30 3886 H 377.935 3.85839 -1.57905 0
M  V30 3887 H 376.595 3.1889 -0.611493 0
M  V30 3888 H 377.606 2.89145 -4.29669 0
M  V30 3889 H 374.283 3.73832 -1.85893 0
M  V30 3890 H 375.673 3.26445 -5.87268 0
M  V30 3891 N 378.394 1.34581 0.820102 0
M  V30 3892 C 379.344 1.22943 1.92013 0
M  V30 3893 C 380.328 0.127802 1.60392 0
M  V30 3894 O 381.52 0.357737 1.73347 0
M  V30 3895 C 378.649 0.989938 3.28717 0
M  V30 3896 C 377.735 2.13486 3.66449 0
M  V30 3897 N 378.126 3.38625 3.75722 0
M  V30 3898 C 376.424 2.04573 3.96315 0
M  V30 3899 C 377.125 4.13832 4.08801 0
M  V30 3900 N 376.101 3.42451 4.22171 0
M  V30 3901 H 379.903 2.17771 1.97365 0
M  V30 3902 H 377.417 1.2686 1.01392 0
M  V30 3903 H 379.414 0.887462 4.07345 0
M  V30 3904 H 378.074 0.0503691 3.24661 0
M  V30 3905 H 379.085 3.73143 3.59144 0
M  V30 3906 H 375.762 1.1839 4.00362 0
M  V30 3907 H 377.152 5.21909 4.23156 0
M  V30 3908 N 379.872 -1.04064 1.18357 0
M  V30 3909 C 380.82 -2.14187 0.907007 0
M  V30 3910 C 381.814 -1.68879 -0.132725 0
M  V30 3911 O 383.02 -1.79993 0.0154248 0
M  V30 3912 H 379.395 -0.699585 0.275835 0
M  V30 3913 H 381.366 -2.34711 1.84264 0
M  V30 3914 C 380.115 -3.44785 0.449254 0
M  V30 3915 H 379.438 -3.80058 1.24081 0
M  V30 3916 H 380.878 -4.22974 0.294737 0
M  V30 3917 C 379.337 -3.26391 -0.834909 0
M  V30 3918 O 379.867 -3.53973 -1.89911 0
M  V30 3919 N 378.073 -2.79726 -0.787523 0
M  V30 3920 H 377.62 -2.5748 0.0787347 0
M  V30 3921 H 377.578 -2.67798 -1.64716 0
M  V30 3922 N 381.35 -0.985608 -1.22978 0
M  V30 3923 C 382.58 -0.674603 -1.95276 0
M  V30 3924 C 382.988 0.763483 -1.73111 0
M  V30 3925 O 382.331 1.52601 -1.02268 0
M  V30 3926 C 382.393 -0.891597 -3.48268 0
M  V30 3927 C 382.057 -2.31275 -3.94158 0
M  V30 3928 C 383.054 -3.29179 -4.02415 0
M  V30 3929 C 380.739 -2.64524 -4.27004 0
M  V30 3930 C 382.733 -4.58407 -4.42879 0
M  V30 3931 C 380.42 -3.93974 -4.67149 0
M  V30 3932 C 381.418 -4.90727 -4.75053 0
M  V30 3933 O 381.106 -6.17865 -5.14294 0
M  V30 3934 H 380.838 -0.249251 -0.628371 0
M  V30 3935 H 383.392 -1.32106 -1.5728 0
M  V30 3936 H 381.622 -0.187962 -3.86243 0
M  V30 3937 H 383.311 -0.576957 -4.01779 0
M  V30 3938 H 384.077 -3.04823 -3.77237 0
M  V30 3939 H 379.956 -1.89923 -4.2006 0
M  V30 3940 H 383.5 -5.33926 -4.48964 0
M  V30 3941 H 379.397 -4.18122 -4.91777 0
M  V30 3942 H 380.165 -6.21694 -5.32389 0
M  V30 3943 N 382.828 1.3818 -0.7579 0
M  V30 3944 C 383.776 2.32277 -0.122482 0
M  V30 3945 C 384.77 1.54238 0.700505 0
M  V30 3946 O 385.976 1.69737 0.599119 0
M  V30 3947 H 382.351 0.751712 -0.0208143 0
M  V30 3948 H 384.322 2.83469 -0.932099 0
M  V30 3949 C 383.071 3.39447 0.753076 0
M  V30 3950 H 382.394 3.99591 0.129184 0
M  V30 3951 H 383.834 4.07684 1.16489 0
M  V30 3952 C 382.293 2.78375 1.8976 0
M  V30 3953 O 382.823 2.68025 2.99208 0
M  V30 3954 N 381.029 2.36121 1.69397 0
M  V30 3955 H 380.576 2.4474 0.803762 0
M  V30 3956 H 380.534 1.95602 2.46145 0
M  V30 3957 N 384.306 0.507319 1.49211 0
M  V30 3958 C 385.269 -0.256763 2.27757 0
M  V30 3959 C 386.269 -0.888287 1.34038 0
M  V30 3960 O 387.459 -0.751841 1.5714 0
M  V30 3961 C 384.591 -1.36905 3.12202 0
M  V30 3962 H 385.784 0.432557 2.96764 0
M  V30 3963 H 383.337 0.262488 1.5408 0
M  V30 3964 H 384.072 -2.09233 2.47775 0
M  V30 3965 H 383.857 -0.921599 3.81115 0
M  V30 3966 H 385.347 -1.9071 3.7151 0
M  V30 3967 N 385.784 -1.5574 0.241426 0
M  V30 3968 C 386.747 -2.19877 -0.647063 0
M  V30 3969 C 387.747 -1.16642 -1.10686 0
M  V30 3970 O 388.937 -1.41757 -1.01245 0
M  V30 3971 C 386.069 -2.83797 -1.88871 0
M  V30 3972 H 387.262 -2.99772 -0.087574 0
M  V30 3973 H 384.815 -1.56298 -0.00813574 0
M  V30 3974 H 385.55 -2.07824 -2.48957 0
M  V30 3975 H 385.335 -3.59414 -1.56728 0
M  V30 3976 H 386.825 -3.32898 -2.52129 0
M  V30 3977 N 387.262 0.0317525 -1.57568 0
M  V30 3978 C 388.511 0.722131 -1.8833 0
M  V30 3979 C 388.824 1.76664 -0.839587 0
M  V30 3980 O 390.03 2.50942 -1.03635 0
M  V30 3981 C 388.486 1.33544 -3.34207 0
M  V30 3982 C 388.094 0.327415 -4.46802 0
M  V30 3983 C 389.838 2.00585 -3.7412 0
M  V30 3984 C 387.745 0.948915 -5.83738 0
M  V30 3985 H 386.675 0.273466 -0.702661 0
M  V30 3986 H 389.326 -0.0235811 -1.83485 0
M  V30 3987 H 387.708 2.13077 -3.33788 0
M  V30 3988 H 388.882 -0.441006 -4.58685 0
M  V30 3989 H 387.197 -0.240758 -4.15703 0
M  V30 3990 H 389.794 2.47932 -4.73744 0
M  V30 3991 H 390.137 2.82285 -3.05975 0
M  V30 3992 H 390.67 1.27831 -3.76702 0
M  V30 3993 H 387.409 0.171387 -6.55276 0
M  V30 3994 H 386.929 1.68724 -5.7558 0
M  V30 3995 H 388.608 1.45705 -6.3038 0
M  V30 3996 N 388.74 1.54641 0.303973 0
M  V30 3997 C 389.688 1.86137 1.39484 0
M  V30 3998 C 390.682 0.734854 1.52631 0
M  V30 3999 O 391.888 0.918803 1.54784 0
M  V30 4000 H 388.263 0.590324 0.465856 0
M  V30 4001 H 390.234 2.77324 1.10154 0
M  V30 4002 C 388.983 2.12274 2.75382 0
M  V30 4003 H 388.306 2.98429 2.66046 0
M  V30 4004 H 389.746 2.38254 3.5073 0
M  V30 4005 C 388.205 0.920365 3.24085 0
M  V30 4006 O 388.735 0.139377 4.01458 0
M  V30 4007 N 386.941 0.726566 2.81371 0
M  V30 4008 H 386.488 1.36332 2.18567 0
M  V30 4009 H 386.446 -0.0763799 3.14307 0
M  V30 4010 N 390.218 -0.567019 1.47046 0
M  V30 4011 C 391.165 -1.67489 1.58796 0
M  V30 4012 C 392.135 -1.60399 0.43144 0
M  V30 4013 O 393.32 -1.79378 0.650233 0
M  V30 4014 C 390.46 -3.05821 1.59899 0
M  V30 4015 C 389.573 -3.2342 2.86397 0
M  V30 4016 C 388.708 -4.52093 2.789 0
M  V30 4017 C 387.747 -4.6309 4.00267 0
M  V30 4018 N 386.884 -5.83106 3.91064 0
M  V30 4019 H 391.724 -1.56785 2.53422 0
M  V30 4020 H 389.261 -0.763896 1.2571 0
M  V30 4021 H 391.219 -3.8591 1.58522 0
M  V30 4022 H 389.849 -3.15384 0.687929 0
M  V30 4023 H 388.901 -2.3683 2.97684 0
M  V30 4024 H 390.213 -3.27412 3.76301 0
M  V30 4025 H 389.367 -5.4043 2.75718 0
M  V30 4026 H 388.106 -4.50565 1.86662 0
M  V30 4027 H 387.111 -3.73168 4.03765 0
M  V30 4028 H 388.336 -4.66386 4.93621 0
M  V30 4029 H 386.282 -5.82546 3.01623 0
M  V30 4030 H 386.199 -5.88434 4.74638 0
M  V30 4031 H 387.467 -6.73831 3.91882 0
M  V30 4032 N 391.696 -1.35014 -0.812953 0
M  V30 4033 C 392.926 -1.30841 -1.59888 0
M  V30 4034 C 393.334 0.117576 -1.88834 0
M  V30 4035 O 392.677 1.07807 -1.48739 0
M  V30 4036 C 392.739 -2.0412 -2.95931 0
M  V30 4037 C 392.403 -3.53336 -2.89832 0
M  V30 4038 C 393.4 -4.48052 -2.63714 0
M  V30 4039 C 391.085 -3.95894 -3.0915 0
M  V30 4040 C 393.079 -5.833 -2.56982 0
M  V30 4041 C 390.766 -5.31239 -3.0204 0
M  V30 4042 C 391.764 -6.24754 -2.75991 0
M  V30 4043 O 391.452 -7.57617 -2.68833 0
M  V30 4044 H 391.184 -0.451215 -0.50337 0
M  V30 4045 H 393.738 -1.78354 -1.01877 0
M  V30 4046 H 391.968 -1.51235 -3.559 0
M  V30 4047 H 393.657 -1.93107 -3.57022 0
M  V30 4048 H 394.423 -4.16492 -2.48515 0
M  V30 4049 H 390.302 -3.23495 -3.28438 0
M  V30 4050 H 393.846 -6.56263 -2.36569 0
M  V30 4051 H 389.743 -5.62415 -3.16796 0
M  V30 4052 H 390.511 -7.67469 -2.84487 0
M  V30 4053 N 393.175 1.03435 -1.18907 0
M  V30 4054 C 394.123 2.13703 -0.918353 0
M  V30 4055 C 395.117 1.68947 0.123767 0
M  V30 4056 O 396.323 1.79983 -0.0249701 0
M  V30 4057 H 392.698 0.698112 -0.279542 0
M  V30 4058 H 394.669 2.33731 -1.85506 0
M  V30 4059 C 393.418 3.44542 -0.467532 0
M  V30 4060 H 392.741 3.79394 -1.26095 0
M  V30 4061 H 394.181 4.22812 -0.317164 0
M  V30 4062 C 392.64 3.26829 0.817588 0
M  V30 4063 O 393.17 3.54975 1.88031 0
M  V30 4064 N 391.376 2.80139 0.772677 0
M  V30 4065 H 390.923 2.57434 -0.0923883 0
M  V30 4066 H 390.881 2.68668 1.63294 0
M  V30 4067 N 394.653 0.992116 1.22453 0
M  V30 4068 C 395.603 0.512969 2.22155 0
M  V30 4069 C 396.587 -0.418416 1.55364 0
M  V30 4070 O 397.779 -0.245363 1.75291 0
M  V30 4071 C 394.908 -0.171822 3.4287 0
M  V30 4072 C 393.994 0.779822 4.16869 0
M  V30 4073 N 394.385 1.92734 4.6764 0
M  V30 4074 C 392.683 0.59554 4.42006 0
M  V30 4075 C 393.384 2.52458 5.24061 0
M  V30 4076 N 392.36 1.80735 5.12675 0
M  V30 4077 H 396.162 1.38817 2.5905 0
M  V30 4078 H 393.676 0.854277 1.38115 0
M  V30 4079 H 395.673 -0.532469 4.13486 0
M  V30 4080 H 394.333 -1.04317 3.07487 0
M  V30 4081 H 395.344 2.30816 4.63621 0
M  V30 4082 H 392.021 -0.229805 4.16867 0
M  V30 4083 H 393.411 3.49433 5.73887 0
M  V30 4084 N 396.131 -1.37776 0.765217 0
M  V30 4085 C 397.408 -1.93975 0.251596 0
M  V30 4086 C 397.788 -1.69949 -1.25222 0
M  V30 4087 O 397.136 -1.04457 -2.03226 0
M  V30 4088 C 397.346 -3.43487 0.617895 0
M  V30 4089 C 398.694 -4.20564 0.584029 0
M  V30 4090 O 399.718 -3.5182 0.556888 0
M  V30 4091 O 398.577 -5.43138 0.605291 0
M  V30 4092 H 395.671 -0.82509 0.0561806 0
M  V30 4093 H 398.217 -1.47101 0.846128 0
M  V30 4094 H 396.989 -3.5453 1.65602 0
M  V30 4095 H 396.612 -3.976 -0.00403411 0
M  V30 4096 N 397.609 -0.515225 -1.4894 0
M  V30 4097 C 398.858 0.0261361 -2.01683 0
M  V30 4098 C 399.171 1.36719 -1.39883 0
M  V30 4099 O 400.377 1.99606 -1.84037 0
M  V30 4100 C 398.833 0.0970111 -3.59769 0
M  V30 4101 C 398.441 -1.23825 -4.30548 0
M  V30 4102 C 400.185 0.587981 -4.20408 0
M  V30 4103 C 398.092 -1.12877 -5.80528 0
M  V30 4104 H 397.022 0.0135398 -0.753878 0
M  V30 4105 H 399.673 -0.656787 -1.71343 0
M  V30 4106 H 398.055 0.844694 -3.86886 0
M  V30 4107 H 399.229 -2.00034 -4.15118 0
M  V30 4108 H 397.544 -1.66379 -3.81716 0
M  V30 4109 H 400.141 0.68763 -5.3026 0
M  V30 4110 H 400.484 1.59026 -3.84729 0
M  V30 4111 H 401.017 -0.103582 -3.97665 0
M  V30 4112 H 397.756 -2.10575 -6.20756 0
M  V30 4113 H 397.276 -0.407799 -5.98412 0
M  V30 4114 H 398.955 -0.813332 -6.41868 0
M  V30 4115 N 399.087 1.5561 -0.249682 0
M  V30 4116 C 400.05 2.20217 0.635394 0
M  V30 4117 C 401.05 1.17227 1.10066 0
M  V30 4118 O 402.24 1.42292 1.00492 0
M  V30 4119 C 399.372 2.84794 1.87363 0
M  V30 4120 H 400.565 2.99814 0.0716752 0
M  V30 4121 H 398.118 1.563 -0.000153234 0
M  V30 4122 H 398.853 2.09142 2.47851 0
M  V30 4123 H 398.638 3.60241 1.5482 0
M  V30 4124 H 400.128 3.3423 2.5036 0
M  V30 4125 N 400.565 -0.0233959 1.57583 0
M  V30 4126 C 401.495 -1.02162 2.09965 0
M  V30 4127 C 402.476 -1.3735 1.00344 0
M  V30 4128 O 403.661 -1.46135 1.27899 0
M  V30 4129 C 400.791 -2.32081 2.58371 0
M  V30 4130 C 399.745 -2.1112 3.72307 0
M  V30 4131 C 399.071 -3.46848 4.06941 0
M  V30 4132 C 400.371 -1.49276 5.00514 0
M  V30 4133 H 402.065 -0.585557 2.93618 0
M  V30 4134 H 399.611 -0.280218 1.41247 0
M  V30 4135 H 401.564 -3.02249 2.93639 0
M  V30 4136 H 400.288 -2.77758 1.71808 0
M  V30 4137 H 398.947 -1.43384 3.37397 0
M  V30 4138 H 398.595 -3.90184 3.17436 0
M  V30 4139 H 398.295 -3.33646 4.83688 0
M  V30 4140 H 399.819 -4.18369 4.44747 0
M  V30 4141 H 401.233 -2.09368 5.33702 0
M  V30 4142 H 399.63 -1.46632 5.8191 0
M  V30 4143 H 400.7 -0.459217 4.82721 0
M  V30 4144 N 402.043 -1.548 -0.295768 0
M  V30 4145 C 402.973 -1.89115 -1.36959 0
M  V30 4146 C 403.954 -0.75059 -1.52644 0
M  V30 4147 O 405.139 -1.00678 -1.66065 0
M  V30 4148 C 402.269 -2.14307 -2.73295 0
M  V30 4149 C 401.223 -3.30151 -2.72368 0
M  V30 4150 C 400.549 -3.40772 -4.12042 0
M  V30 4151 C 401.849 -4.67126 -2.33646 0
M  V30 4152 H 403.543 -2.79053 -1.08488 0
M  V30 4153 H 401.089 -1.34266 -0.520443 0
M  V30 4154 H 403.042 -2.36898 -3.48507 0
M  V30 4155 H 401.766 -1.21145 -3.03301 0
M  V30 4156 H 400.425 -3.0749 -1.99613 0
M  V30 4157 H 400.073 -2.45117 -4.39234 0
M  V30 4158 H 399.773 -4.18645 -4.12322 0
M  V30 4159 H 401.297 -3.6563 -4.89027 0
M  V30 4160 H 402.711 -4.89414 -2.98575 0
M  V30 4161 H 401.108 -5.47751 -2.45129 0
M  V30 4162 H 402.178 -4.67489 -1.28772 0
M  V30 4163 N 403.521 0.559213 -1.47345 0
M  V30 4164 C 404.431 1.69388 -1.62311 0
M  V30 4165 C 405.447 1.6648 -0.505993 0
M  V30 4166 O 406.623 1.85964 -0.773262 0
M  V30 4167 C 403.688 3.05894 -1.63185 0
M  V30 4168 C 402.749 3.19885 -2.86307 0
M  V30 4169 C 401.982 4.49879 -2.87131 0
M  V30 4170 O 402.205 5.35217 -1.97229 0
M  V30 4171 O 401.139 4.67618 -3.78968 0
M  V30 4172 H 404.965 1.59706 -2.58317 0
M  V30 4173 H 402.55 0.728989 -1.30407 0
M  V30 4174 H 404.432 3.87133 -1.66451 0
M  V30 4175 H 403.107 3.15964 -0.70345 0
M  V30 4176 H 402.014 2.38052 -2.88587 0
M  V30 4177 H 403.347 3.14718 -3.78435 0
M  V30 4178 N 404.999 1.35443 0.805782 0
M  V30 4179 C 405.929 1.31095 1.93226 0
M  V30 4180 C 406.91 0.185244 1.69088 0
M  V30 4181 O 408.095 0.380332 1.90439 0
M  V30 4182 C 405.225 1.08299 3.29983 0
M  V30 4183 C 404.179 2.17519 3.68605 0
M  V30 4184 C 403.505 1.79887 5.03532 0
M  V30 4185 C 404.805 3.5949 3.78898 0
M  V30 4186 H 406.499 2.25352 1.97122 0
M  V30 4187 H 404.045 1.0848 0.946996 0
M  V30 4188 H 405.998 1.03897 4.08391 0
M  V30 4189 H 404.722 0.104885 3.26432 0
M  V30 4190 H 403.381 2.2102 2.92482 0
M  V30 4191 H 403.029 0.80693 4.96485 0
M  V30 4192 H 402.729 2.53001 5.30344 0
M  V30 4193 H 404.253 1.77011 5.84379 0
M  V30 4194 H 405.667 3.58307 4.47536 0
M  V30 4195 H 404.064 4.31371 4.1718 0
M  V30 4196 H 405.134 3.95584 2.80431 0
M  V30 4197 N 406.477 -1.02803 1.19454 0
M  V30 4198 C 407.754 -1.73299 0.907013 0
M  V30 4199 C 408.134 -2.02772 -0.587086 0
M  V30 4200 O 407.482 -1.68304 -1.54551 0
M  V30 4201 C 407.692 -3.00912 1.76785 0
M  V30 4202 C 409.04 -3.74403 2.00268 0
M  V30 4203 O 410.064 -3.10841 1.73943 0
M  V30 4204 O 408.923 -4.88675 2.4466 0
M  V30 4205 H 406.017 -0.754727 0.338106 0
M  V30 4206 H 408.563 -1.08754 1.30271 0
M  V30 4207 H 407.335 -2.75366 2.7801 0
M  V30 4208 H 406.958 -3.73197 1.37149 0
M  V30 4209 N 407.956 -0.998596 -1.21925 0
M  V30 4210 C 408.866 -0.562736 -2.27751 0
M  V30 4211 C 409.882 0.391203 -1.69545 0
M  V30 4212 O 411.058 0.256625 -1.99758 0
M  V30 4213 C 408.123 0.11012 -3.46525 0
M  V30 4214 C 407.184 -0.887495 -4.20026 0
M  V30 4215 C 406.417 -0.246654 -5.3313 0
M  V30 4216 O 406.64 0.958088 -5.62296 0
M  V30 4217 O 405.574 -0.954374 -5.94286 0
M  V30 4218 H 409.4 -1.44329 -2.67213 0
M  V30 4219 H 406.985 -0.767135 -1.28201 0
M  V30 4220 H 408.867 0.486756 -4.18579 0
M  V30 4221 H 407.542 0.965154 -3.08976 0
M  V30 4222 H 406.449 -1.31517 -3.5022 0
M  V30 4223 H 407.782 -1.71191 -4.6147 0
M  V30 4224 N 409.434 1.37368 -0.772513 0
M  V30 4225 C 410.845 1.8231 -0.402493 0
M  V30 4226 C 411.196 1.6436 1.07146 0
M  V30 4227 O 410.321 1.15514 1.82991 0
M  V30 4228 C 410.916 3.30979 -0.723776 0
M  V30 4229 C 409.475 3.74195 -0.406802 0
M  V30 4230 C 408.622 2.59885 -0.967218 0
M  V30 4231 H 411.573 1.25829 -0.967099 0
M  V30 4232 H 411.594 3.80499 -0.00870832 0
M  V30 4233 H 411.106 3.44011 -1.7966 0
M  V30 4234 H 409.207 3.66732 0.658673 0
M  V30 4235 H 409.32 4.7027 -0.915588 0
M  V30 4236 H 407.684 2.51674 -0.391416 0
M  V30 4237 H 408.467 2.7571 -2.04546 0
M  V30 4238 N 410.912 0.523116 1.48665 0
M  V30 4239 C 411.842 -0.23231 2.32342 0
M  V30 4240 C 412.823 -0.941637 1.41659 0
M  V30 4241 O 414.008 -0.928751 1.70552 0
M  V30 4242 C 411.138 -1.28387 3.22698 0
M  V30 4243 C 410.092 -0.693098 4.22351 0
M  V30 4244 C 409.418 -1.8468 5.01794 0
M  V30 4245 C 410.718 0.33063 5.21252 0
M  V30 4246 H 412.412 0.466192 2.95748 0
M  V30 4247 H 409.958 0.225643 1.42221 0
M  V30 4248 H 411.911 -1.82024 3.80059 0
M  V30 4249 H 410.635 -2.01186 2.57278 0
M  V30 4250 H 409.294 -0.178299 3.66166 0
M  V30 4251 H 408.942 -2.56301 4.32804 0
M  V30 4252 H 408.642 -1.45747 5.69238 0
M  V30 4253 H 410.166 -2.38709 5.62006 0
M  V30 4254 H 411.58 -0.118407 5.73178 0
M  V30 4255 H 409.977 0.636974 5.9671 0
M  V30 4256 H 411.047 1.23883 4.68808 0
M  V30 4257 N 412.39 -1.55475 0.257931 0
M  V30 4258 C 413.636 -1.99502 -0.364266 0
M  V30 4259 C 413.969 -1.146 -1.56782 0
M  V30 4260 O 413.244 -0.211968 -1.93342 0
M  V30 4261 C 413.527 -3.51917 -0.763333 0
M  V30 4262 C 413.38 -4.4758 0.446371 0
M  V30 4263 C 414.699 -4.09742 -1.60623 0
M  V30 4264 H 411.818 -0.725277 -0.130929 0
M  V30 4265 H 414.46 -1.8653 0.361446 0
M  V30 4266 H 412.61 -3.63101 -1.38166 0
M  V30 4267 H 414.282 -4.48362 1.08487 0
M  V30 4268 H 412.525 -4.19947 1.08753 0
M  V30 4269 H 413.196 -5.51862 0.123645 0
M  V30 4270 H 415.672 -4.01727 -1.08418 0
M  V30 4271 H 414.548 -5.16631 -1.85429 0
M  V30 4272 H 414.809 -3.58889 -2.58169 0
M  V30 4273 N 413.868 0.0150385 -1.57593 0
M  V30 4274 C 414.798 1.01047 -2.10503 0
M  V30 4275 C 415.779 1.36816 -1.01071 0
M  V30 4276 O 416.964 1.45455 -1.28672 0
M  V30 4277 C 414.094 2.30708 -2.59598 0
M  V30 4278 C 413.048 2.09142 -3.73421 0
M  V30 4279 C 412.374 3.44685 -4.08774 0
M  V30 4280 C 413.674 1.46619 -5.01298 0
M  V30 4281 H 415.368 0.569978 -2.93925 0
M  V30 4282 H 412.914 0.272724 -1.41394 0
M  V30 4283 H 414.867 3.00687 -2.95238 0
M  V30 4284 H 413.591 2.76843 -1.73279 0
M  V30 4285 H 412.25 1.41592 -3.38153 0
M  V30 4286 H 411.898 3.88495 -3.195 0
M  V30 4287 H 411.598 3.31077 -4.8545 0
M  V30 4288 H 413.122 4.16004 -4.4696 0
M  V30 4289 H 414.536 2.06535 -5.34805 0
M  V30 4290 H 412.933 1.43544 -5.82679 0
M  V30 4291 H 414.003 0.433611 -4.82957 0
M  V30 4292 N 415.346 1.54954 0.287554 0
M  V30 4293 C 416.294 1.87606 1.37502 0
M  V30 4294 C 417.288 0.751001 1.51843 0
M  V30 4295 O 418.494 0.935169 1.53801 0
M  V30 4296 H 414.869 0.595231 0.459569 0
M  V30 4297 H 416.84 2.78477 1.07206 0
M  V30 4298 C 415.589 2.15183 2.73115 0
M  V30 4299 H 414.912 3.01234 2.62866 0
M  V30 4300 H 416.352 2.4196 3.48183 0
M  V30 4301 C 414.811 0.954686 3.2309 0
M  V30 4302 O 415.341 0.181949 4.01288 0
M  V30 4303 N 413.547 0.756368 2.80584 0
M  V30 4304 H 413.094 1.38643 2.17108 0
M  V30 4305 H 413.052 -0.0430391 3.14371 0
M  V30 4306 N 416.824 -0.551391 1.4764 0
M  V30 4307 C 418.049 -1.33837 1.58437 0
M  V30 4308 C 418.474 -1.866 0.237063 0
M  V30 4309 O 417.832 -1.6328 -0.787994 0
M  V30 4310 C 417.88 -2.48014 2.61766 0
M  V30 4311 O 416.984 -3.50419 2.1744 0
M  V30 4312 H 416.325 -0.397299 0.532024 0
M  V30 4313 H 418.855 -0.665759 1.93465 0
M  V30 4314 H 418.865 -2.94503 2.82369 0
M  V30 4315 H 417.54 -2.08969 3.5959 0
M  V30 4316 H 416.117 -3.10196 2.06961 0
M  V30 4317 N 418.302 -1.35869 -0.798587 0
M  V30 4318 C 419.532 -1.32529 -1.58491 0
M  V30 4319 C 419.94 0.0975405 -1.88948 0
M  V30 4320 O 419.283 1.06224 -1.49874 0
M  V30 4321 C 419.345 -2.07247 -2.9375 0
M  V30 4322 C 419.009 -3.56391 -2.86068 0
M  V30 4323 C 420.006 -4.50824 -2.58947 0
M  V30 4324 C 417.691 -3.9915 -3.04933 0
M  V30 4325 C 419.685 -5.85993 -2.5078 0
M  V30 4326 C 417.372 -5.34413 -2.96389 0
M  V30 4327 C 418.37 -6.27646 -2.69349 0
M  V30 4328 O 418.058 -7.60426 -2.60782 0
M  V30 4329 H 417.79 -0.456529 -0.498556 0
M  V30 4330 H 420.344 -1.79425 -0.999799 0
M  V30 4331 H 418.574 -1.55001 -3.54276 0
M  V30 4332 H 420.263 -1.96883 -3.54954 0
M  V30 4333 H 421.029 -4.19104 -2.44084 0
M  V30 4334 H 416.908 -3.26961 -3.24989 0
M  V30 4335 H 420.452 -6.58735 -2.29595 0
M  V30 4336 H 416.349 -5.65743 -3.10813 0
M  V30 4337 H 417.117 -7.70444 -2.76331 0
M  V30 4338 N 419.78 1.02168 -1.19998 0
M  V30 4339 C 421.026 1.75945 -1.00852 0
M  V30 4340 C 421.359 1.88702 0.458828 0
M  V30 4341 O 420.634 1.40911 1.34069 0
M  V30 4342 C 420.917 3.18154 -1.68671 0
M  V30 4343 C 420.77 3.13224 -3.22817 0
M  V30 4344 C 422.089 4.16711 -1.41561 0
M  V30 4345 H 419.208 0.638673 -0.367785 0
M  V30 4346 H 421.85 1.19222 -1.4794 0
M  V30 4347 H 420 3.66586 -1.28636 0
M  V30 4348 H 421.672 2.72635 -3.72112 0
M  V30 4349 H 419.915 2.50751 -3.53986 0
M  V30 4350 H 420.586 4.13728 -3.65422 0
M  V30 4351 H 423.062 3.76913 -1.76284 0
M  V30 4352 H 421.938 5.14391 -1.91553 0
M  V30 4353 H 422.199 4.40774 -0.342193 0
M  V30 4354 N 421.258 1.00505 1.21394 0
M  V30 4355 C 422.486 0.706609 1.9446 0
M  V30 4356 C 422.901 -0.73081 1.74082 0
M  V30 4357 O 422.258 -1.49446 1.04747 0
M  V30 4358 C 422.309 1.01824 3.46863 0
M  V30 4359 O 422.03 2.39919 3.66566 0
M  V30 4360 C 423.531 0.739216 4.37093 0
M  V30 4361 H 420.751 0.260394 0.618414 0
M  V30 4362 H 423.295 1.34311 1.54211 0
M  V30 4363 H 421.45 0.427343 3.85036 0
M  V30 4364 H 421.864 2.50784 4.6066 0
M  V30 4365 H 423.338 1.00744 5.42729 0
M  V30 4366 H 423.815 -0.326746 4.37983 0
M  V30 4367 H 424.421 1.31173 4.04566 0
M  V30 4368 N 422.737 -1.36956 0.779787 0
M  V30 4369 C 424.148 -1.82094 0.412156 0
M  V30 4370 C 424.499 -1.64926 -1.06273 0
M  V30 4371 O 423.624 -1.16483 -1.82375 0
M  V30 4372 C 424.219 -3.3059 0.741319 0
M  V30 4373 C 422.778 -3.73974 0.426641 0
M  V30 4374 C 421.925 -2.59368 0.980987 0
M  V30 4375 H 424.876 -1.25314 0.973758 0
M  V30 4376 H 424.897 -3.80489 0.028887 0
M  V30 4377 H 424.409 -3.43054 1.81482 0
M  V30 4378 H 422.51 -3.67076 -0.639215 0
M  V30 4379 H 422.623 -4.69778 0.940515 0
M  V30 4380 H 420.987 -2.51463 0.404757 0
M  V30 4381 H 421.77 -2.74621 2.06005 0
M  V30 4382 N 424.215 -0.530993 -1.48385 0
M  V30 4383 C 425.464 0.00474348 -2.01699 0
M  V30 4384 C 425.777 1.35227 -1.41325 0
M  V30 4385 O 426.983 1.97643 -1.86144 0
M  V30 4386 C 425.439 0.0588473 -3.59852 0
M  V30 4387 C 425.047 -1.28385 -4.2921 0
M  V30 4388 C 426.791 0.543358 -4.21008 0
M  V30 4389 C 424.698 -1.19028 -5.79298 0
M  V30 4390 H 423.628 0.00554317 -0.75398 0
M  V30 4391 H 426.279 -0.674924 -1.70637 0
M  V30 4392 H 424.661 0.803612 -3.8776 0
M  V30 4393 H 425.835 -2.04426 -4.12973 0
M  V30 4394 H 424.15 -1.70418 -3.7993 0
M  V30 4395 H 426.747 0.631351 -5.3096 0
M  V30 4396 H 427.09 1.54937 -3.86394 0
M  V30 4397 H 427.623 -0.145754 -3.97533 0
M  V30 4398 H 424.362 -2.17147 -6.18488 0
M  V30 4399 H 423.882 -0.471246 -5.97946 0
M  V30 4400 H 425.561 -0.881365 -6.40969 0
M  V30 4401 N 425.693 1.55336 -0.266172 0
M  V30 4402 C 426.933 2.01303 0.354459 0
M  V30 4403 C 427.297 1.15046 1.53715 0
M  V30 4404 O 428.498 1.50554 2.22681 0
M  V30 4405 C 426.769 3.49748 0.735579 0
M  V30 4406 S 428.328 4.1771 1.34401 0
M  V30 4407 H 425.146 0.702333 0.110674 0
M  V30 4408 H 427.748 1.91653 -0.385916 0
M  V30 4409 H 426.452 4.10181 -0.134196 0
M  V30 4410 H 425.983 3.63364 1.50764 0
M  V30 4411 H 427.998 4.20594 2.63278 0
M  V30 4412 N 427.171 -0.0066808 1.57599 0
M  V30 4413 C 428.42 -0.692078 1.89455 0
M  V30 4414 C 428.733 -1.75306 0.867586 0
M  V30 4415 O 429.939 -2.49262 1.07614 0
M  V30 4416 C 428.395 -1.2821 3.36289 0
M  V30 4417 C 428.003 -0.256291 4.47266 0
M  V30 4418 C 429.747 -1.94608 3.77264 0
M  V30 4419 C 427.654 -0.855927 5.85173 0
M  V30 4420 H 426.584 -0.262252 0.706923 0
M  V30 4421 H 429.235 0.052769 1.83424 0
M  V30 4422 H 427.617 -2.0774 3.37135 0
M  V30 4423 H 428.791 0.513923 4.57925 0
M  V30 4424 H 427.106 0.306862 4.15268 0
M  V30 4425 H 429.703 -2.40364 4.77629 0
M  V30 4426 H 430.046 -2.77382 3.10427 0
M  V30 4427 H 430.579 -1.21822 3.78688 0
M  V30 4428 H 427.318 -0.0671161 6.55466 0
M  V30 4429 H 426.838 -1.59546 5.78191 0
M  V30 4430 H 428.517 -1.35658 6.32618 0
M  V30 4431 N 428.649 -1.55105 -0.279332 0
M  V30 4432 C 429.612 -1.86783 -1.32834 0
M  V30 4433 C 430.612 -0.74199 -1.42657 0
M  V30 4434 O 431.802 -1.0102 -1.41918 0
M  V30 4435 C 428.934 -2.06746 -2.71052 0
M  V30 4436 H 430.127 -2.8055 -1.05979 0
M  V30 4437 H 427.68 -1.47499 -0.517087 0
M  V30 4438 H 428.415 -1.15339 -3.03097 0
M  V30 4439 H 428.2 -2.88711 -2.65309 0
M  V30 4440 H 429.69 -2.32549 -3.46858 0
M  V30 4441 N 430.127 0.543554 -1.4793 0
M  V30 4442 C 431.404 1.30458 -1.4574 0
M  V30 4443 C 431.784 2.1048 -0.161692 0
M  V30 4444 O 431.132 2.11831 0.856734 0
M  V30 4445 C 431.342 2.19754 -2.71126 0
M  V30 4446 C 432.69 2.80334 -3.18901 0
M  V30 4447 O 433.714 2.30049 -2.71948 0
M  V30 4448 O 432.573 3.71766 -4.00565 0
M  V30 4449 H 429.667 0.588117 -0.581418 0
M  V30 4450 H 432.213 0.561328 -1.60147 0
M  V30 4451 H 430.985 1.60316 -3.56952 0
M  V30 4452 H 430.608 3.01351 -2.59371 0
M  V30 4453 N 431.605 1.3629 0.791371 0
M  V30 4454 C 432.552 1.30458 1.90393 0
M  V30 4455 C 433.522 0.173632 1.6519 0
M  V30 4456 O 434.707 0.35983 1.87376 0
M  V30 4457 C 431.847 1.09777 3.27174 0
M  V30 4458 C 430.96 2.31929 3.64462 0
M  V30 4459 C 430.095 2.04276 4.90352 0
M  V30 4460 C 429.134 3.224 5.20312 0
M  V30 4461 N 428.271 2.94424 6.37385 0
M  V30 4462 H 433.111 2.25589 1.94714 0
M  V30 4463 H 430.648 1.12122 0.952216 0
M  V30 4464 H 432.606 0.958133 4.06049 0
M  V30 4465 H 431.236 0.183014 3.22281 0
M  V30 4466 H 430.288 2.56703 2.80727 0
M  V30 4467 H 431.6 3.20085 3.82553 0
M  V30 4468 H 430.754 1.87231 5.77087 0
M  V30 4469 H 429.493 1.13428 4.74326 0
M  V30 4470 H 428.498 3.40005 4.32061 0
M  V30 4471 H 429.723 4.14071 5.38258 0
M  V30 4472 H 427.669 2.06185 6.22755 0
M  V30 4473 H 427.586 3.76118 6.55798 0
M  V30 4474 H 428.854 2.80953 7.27108 0
M  V30 4475 N 433.083 -1.0153 1.20538 0
M  V30 4476 C 433.993 -2.13557 0.971113 0
M  V30 4477 C 435.009 -1.73845 -0.0734366 0
M  V30 4478 O 436.185 -2.01075 0.114299 0
M  V30 4479 C 433.25 -3.42661 0.527639 0
M  V30 4480 C 432.311 -3.96608 1.64319 0
M  V30 4481 C 431.544 -5.1955 1.22078 0
M  V30 4482 O 431.767 -5.70329 0.0900198 0
M  V30 4483 O 430.701 -5.66681 2.02871 0
M  V30 4484 H 434.527 -2.3619 1.90913 0
M  V30 4485 H 432.112 -1.11946 0.989362 0
M  V30 4486 H 433.994 -4.20404 0.289621 0
M  V30 4487 H 432.669 -3.21441 -0.381779 0
M  V30 4488 H 431.576 -3.20139 1.93551 0
M  V30 4489 H 432.909 -4.22219 2.52966 0
M  V30 4490 N 434.561 -1.01147 -1.20859 0
M  V30 4491 C 435.791 -0.715872 -1.93801 0
M  V30 4492 C 436.199 0.726592 -1.74692 0
M  V30 4493 O 435.542 1.50397 -1.05482 0
M  V30 4494 C 435.604 -0.965269 -3.46299 0
M  V30 4495 C 435.268 -2.39584 -3.89164 0
M  V30 4496 C 436.265 -3.3764 -3.95342 0
M  V30 4497 C 433.95 -2.73522 -4.21297 0
M  V30 4498 C 435.944 -4.67698 -4.33056 0
M  V30 4499 C 433.631 -4.03794 -4.58687 0
M  V30 4500 C 434.629 -5.00693 -4.64538 0
M  V30 4501 O 434.317 -6.28635 -5.01072 0
M  V30 4502 H 434.049 -0.262524 -0.622942 0
M  V30 4503 H 436.603 -1.35413 -1.54443 0
M  V30 4504 H 434.833 -0.269847 -3.85757 0
M  V30 4505 H 436.522 -0.662051 -4.00464 0
M  V30 4506 H 437.288 -3.12757 -3.70686 0
M  V30 4507 H 433.167 -1.9879 -4.15937 0
M  V30 4508 H 436.711 -5.4333 -4.37537 0
M  V30 4509 H 432.608 -4.28459 -4.82797 0
M  V30 4510 H 433.376 -6.32847 -5.19083 0
M  V30 4511 N 436.039 1.36541 -0.78704 0
M  V30 4512 C 437.267 2.03561 -0.370199 0
M  V30 4513 C 437.682 1.59347 1.01263 0
M  V30 4514 O 437.039 0.781781 1.64907 0
M  V30 4515 C 437.09 3.59033 -0.421614 0
M  V30 4516 O 436.811 4.01634 -1.7499 0
M  V30 4517 C 438.312 4.433 0.00489763 0
M  V30 4518 H 435.532 0.653346 -0.152904 0
M  V30 4519 H 438.076 1.74566 -1.06522 0
M  V30 4520 H 436.231 3.86746 0.224971 0
M  V30 4521 H 436.645 4.96217 -1.69909 0
M  V30 4522 H 438.119 5.51939 -0.0822184 0
M  V30 4523 H 438.596 4.26285 1.05723 0
M  V30 4524 H 439.202 4.20843 -0.614085 0
M  V30 4525 N 437.518 0.538854 1.48102 0
M  V30 4526 C 438.466 -0.232325 2.31437 0
M  V30 4527 C 439.46 -0.927004 1.41785 0
M  V30 4528 O 440.666 -0.850378 1.58646 0
M  V30 4529 H 437.041 -0.0937916 0.746128 0
M  V30 4530 H 439.012 0.489986 2.9435 0
M  V30 4531 C 437.761 -1.26074 3.24038 0
M  V30 4532 H 437.084 -0.735609 3.92974 0
M  V30 4533 H 438.524 -1.77157 3.85216 0
M  V30 4534 C 436.983 -2.29902 2.46265 0
M  V30 4535 O 437.513 -3.36502 2.19384 0
M  V30 4536 N 435.719 -2.03348 2.07601 0
M  V30 4537 H 435.266 -1.16675 2.29662 0
M  V30 4538 H 435.224 -2.73038 1.55877 0
M  V30 4539 N 438.996 -1.55193 0.274407 0
M  V30 4540 C 440.245 -1.98758 -0.343213 0
M  V30 4541 C 440.558 -1.16624 -1.5703 0
M  V30 4542 O 441.764 -1.5033 -2.26082 0
M  V30 4543 C 440.22 -3.53759 -0.661996 0
M  V30 4544 C 439.828 -4.4467 0.54524 0
M  V30 4545 C 441.572 -4.05916 -1.24228 0
M  V30 4546 C 439.479 -5.91058 0.201084 0
M  V30 4547 H 438.409 -0.742353 -0.132014 0
M  V30 4548 H 441.06 -1.79545 0.378948 0
M  V30 4549 H 439.442 -3.68772 -1.44304 0
M  V30 4550 H 440.616 -4.41426 1.32212 0
M  V30 4551 H 438.931 -4.03143 1.04232 0
M  V30 4552 H 441.528 -5.12831 -1.51357 0
M  V30 4553 H 441.871 -3.54908 -2.17592 0
M  V30 4554 H 442.404 -3.9434 -0.523542 0
M  V30 4555 H 439.143 -6.46161 1.10258 0
M  V30 4556 H 438.663 -5.97373 -0.539045 0
M  V30 4557 H 440.342 -6.46669 -0.206954 0
M  V30 4558 N 440.474 -0.00167713 -1.576 0
M  V30 4559 C 441.721 0.68282 -1.90641 0
M  V30 4560 C 442.049 1.73686 -0.875415 0
M  V30 4561 O 441.304 1.95334 0.119575 0
M  V30 4562 C 441.603 1.36189 -3.30435 0
M  V30 4563 C 441.269 0.440887 -4.48739 0
M  V30 4564 C 439.931 0.187312 -4.80835 0
M  V30 4565 C 442.283 -0.193134 -5.20842 0
M  V30 4566 C 439.611 -0.70855 -5.82406 0
M  V30 4567 C 441.963 -1.07688 -6.23367 0
M  V30 4568 C 440.627 -1.33962 -6.53919 0
M  V30 4569 H 439.897 0.249862 -0.697603 0
M  V30 4570 H 442.544 -0.0575642 -1.91413 0
M  V30 4571 H 440.849 2.17636 -3.25794 0
M  V30 4572 H 442.546 1.89759 -3.5326 0
M  V30 4573 H 439.136 0.648694 -4.23663 0
M  V30 4574 H 443.32 -0.0102445 -4.96299 0
M  V30 4575 H 438.576 -0.920097 -6.04437 0
M  V30 4576 H 442.75 -1.57451 -6.78367 0
M  V30 4577 H 440.377 -2.03549 -7.32442 0
M  V30 4578 N 441.952 1.55251 0.271103 0
M  V30 4579 C 442.882 1.9127 1.33933 0
M  V30 4580 C 443.863 0.77478 1.5143 0
M  V30 4581 O 445.048 1.03307 1.64442 0
M  V30 4582 C 442.178 2.18627 2.69851 0
M  V30 4583 C 441.132 3.34442 2.67081 0
M  V30 4584 C 440.458 3.47284 4.06569 0
M  V30 4585 C 441.758 4.70784 2.26185 0
M  V30 4586 H 443.452 2.80744 1.04035 0
M  V30 4587 H 440.998 1.35077 0.499017 0
M  V30 4588 H 442.951 2.42413 3.44694 0
M  V30 4589 H 441.675 1.25955 3.01335 0
M  V30 4590 H 440.334 3.10627 1.94695 0
M  V30 4591 H 439.982 2.52074 4.35279 0
M  V30 4592 H 439.682 4.25152 4.0561 0
M  V30 4593 H 441.206 3.73363 4.83148 0
M  V30 4594 H 442.62 4.94102 2.90751 0
M  V30 4595 H 441.017 5.51582 2.36384 0
M  V30 4596 H 442.087 4.69478 1.21319 0
M  V30 4597 N 443.43 -0.535701 1.48216 0
M  V30 4598 C 444.377 -1.64083 1.62312 0
M  V30 4599 C 445.347 -1.59448 0.465365 0
M  V30 4600 O 446.532 -1.77959 0.688135 0
M  V30 4601 C 443.672 -3.0236 1.66349 0
M  V30 4602 C 442.785 -3.17273 2.93193 0
M  V30 4603 C 441.92 -4.46075 2.88427 0
M  V30 4604 C 440.959 -4.54496 4.1 0
M  V30 4605 N 440.096 -5.7468 4.03345 0
M  V30 4606 H 444.936 -1.51374 2.5669 0
M  V30 4607 H 442.473 -0.737059 1.27302 0
M  V30 4608 H 444.431 -3.82461 1.66672 0
M  V30 4609 H 443.061 -3.13854 0.754672 0
M  V30 4610 H 442.113 -2.30462 3.02641 0
M  V30 4611 H 443.425 -3.19357 3.83162 0
M  V30 4612 H 442.579 -5.3446 2.87119 0
M  V30 4613 H 441.318 -4.46504 1.96177 0
M  V30 4614 H 440.323 -3.64519 4.11589 0
M  V30 4615 H 441.548 -4.5581 5.03402 0
M  V30 4616 H 439.494 -5.76017 3.13912 0
M  V30 4617 H 439.411 -5.78234 4.87013 0
M  V30 4618 H 440.679 -6.65367 4.06087 0
M  V30 4619 N 444.908 -1.36708 -0.784132 0
M  V30 4620 C 446.155 -1.31231 -1.54222 0
M  V30 4621 C 446.483 0.106864 -1.94206 0
M  V30 4622 O 445.738 1.07734 -1.63376 0
M  V30 4623 C 446.037 -2.18571 -2.82774 0
M  V30 4624 C 445.703 -3.67039 -2.61903 0
M  V30 4625 C 444.365 -4.07503 -2.55919 0
M  V30 4626 C 446.717 -4.61149 -2.4288 0
M  V30 4627 C 444.045 -5.40211 -2.28886 0
M  V30 4628 C 446.397 -5.94081 -2.17373 0
M  V30 4629 C 445.061 -6.33664 -2.09825 0
M  V30 4630 H 444.331 -0.48021 -0.56434 0
M  V30 4631 H 446.978 -1.68807 -0.904233 0
M  V30 4632 H 445.283 -1.73949 -3.51068 0
M  V30 4633 H 446.98 -2.11655 -3.40592 0
M  V30 4634 H 443.57 -3.34941 -2.67418 0
M  V30 4635 H 447.754 -4.30756 -2.46501 0
M  V30 4636 H 443.01 -5.69855 -2.21529 0
M  V30 4637 H 447.184 -6.66566 -2.01649 0
M  V30 4638 H 444.811 -7.36423 -1.88641 0
M  V30 4639 N 446.386 1.0089 -1.21074 0
M  V30 4640 C 447.634 1.74262 -1.02358 0
M  V30 4641 C 447.955 1.89869 0.444393 0
M  V30 4642 O 447.225 1.44677 1.32081 0
M  V30 4643 H 445.805 0.645615 -0.375754 0
M  V30 4644 H 448.467 1.21596 -1.52317 0
M  V30 4645 H 447.563 2.74328 -1.4883 0
M  V30 4646 N 447.864 1.01787 1.20321 0
M  V30 4647 C 449.089 0.727009 1.9424 0
M  V30 4648 C 449.514 -0.706179 1.74341 0
M  V30 4649 O 448.872 -1.48609 1.03852 0
M  V30 4650 C 448.92 1.06958 3.44372 0
M  V30 4651 O 448.024 0.181983 4.11998 0
M  V30 4652 H 447.365 0.269626 0.606793 0
M  V30 4653 H 449.895 1.36158 1.52716 0
M  V30 4654 H 449.905 1.02182 3.94997 0
M  V30 4655 H 448.58 2.11378 3.58179 0
M  V30 4656 H 447.157 0.287378 3.71791 0
M  V30 4657 N 449.342 -1.36122 0.79427 0
M  V30 4658 C 450.59 -1.98718 0.368177 0
M  V30 4659 C 450.911 -1.63345 -1.06506 0
M  V30 4660 O 450.181 -0.909825 -1.73491 0
M  V30 4661 H 448.761 -0.735038 0.133146 0
M  V30 4662 H 451.423 -1.66239 1.01739 0
M  V30 4663 H 450.519 -3.08633 0.463923 0
M  V30 4664 N 450.82 -0.546701 -1.47814 0
M  V30 4665 C 452.05 -0.0232519 -2.06587 0
M  V30 4666 C 452.458 1.2712 -1.40133 0
M  V30 4667 O 451.801 1.77091 -0.488305 0
M  V30 4668 C 451.863 0.254117 -3.58601 0
M  V30 4669 C 451.527 -0.949331 -4.47031 0
M  V30 4670 C 452.524 -1.85216 -4.85789 0
M  V30 4671 C 450.209 -1.16104 -4.88697 0
M  V30 4672 C 452.203 -2.95047 -5.65001 0
M  V30 4673 C 449.89 -2.26247 -5.67676 0
M  V30 4674 C 450.888 -3.1555 -6.05737 0
M  V30 4675 O 450.576 -4.23784 -6.83127 0
M  V30 4676 H 450.308 -0.0380082 -0.674931 0
M  V30 4677 H 452.862 -0.756631 -1.90956 0
M  V30 4678 H 451.092 1.04168 -3.72406 0
M  V30 4679 H 452.781 0.72167 -3.99433 0
M  V30 4680 H 453.547 -1.70061 -4.54207 0
M  V30 4681 H 449.426 -0.475159 -4.58545 0
M  V30 4682 H 452.97 -3.64778 -5.94628 0
M  V30 4683 H 448.867 -2.41379 -5.98671 0
M  V30 4684 H 449.635 -4.21701 -7.01506 0
M  V30 4685 N 452.299 1.55045 -0.282633 0
M  V30 4686 C 453.545 2.00056 0.332481 0
M  V30 4687 C 453.878 1.1708 1.54939 0
M  V30 4688 O 453.153 0.2427 1.9298 0
M  V30 4689 C 453.436 3.53086 0.70725 0
M  V30 4690 C 453.289 4.46813 -0.517521 0
M  V30 4691 C 454.608 4.12245 1.54084 0
M  V30 4692 H 451.727 0.727268 0.119373 0
M  V30 4693 H 454.369 1.85932 -0.391076 0
M  V30 4694 H 452.519 3.65253 1.32372 0
M  V30 4695 H 454.191 4.46579 -1.15607 0
M  V30 4696 H 452.434 4.18163 -1.1542 0
M  V30 4697 H 453.105 5.51595 -0.211426 0
M  V30 4698 H 455.581 4.03401 1.02013 0
M  V30 4699 H 454.457 5.19515 1.77186 0
M  V30 4700 H 454.718 3.62951 2.52427 0
M  V30 4701 N 453.777 0.010035 1.57597 0
M  V30 4702 C 455.002 -0.687021 1.95691 0
M  V30 4703 C 455.427 -1.65952 0.885519 0
M  V30 4704 O 454.785 -1.80633 -0.15543 0
M  V30 4705 C 454.833 -1.3864 3.32884 0
M  V30 4706 O 453.937 -2.50115 3.27897 0
M  V30 4707 H 453.278 -0.181989 0.638573 0
M  V30 4708 H 455.808 0.0662122 2.04493 0
M  V30 4709 H 455.818 -1.74754 3.6868 0
M  V30 4710 H 454.493 -0.673411 4.10412 0
M  V30 4711 H 453.07 -2.16253 3.03791 0
M  V30 4712 N 455.255 -1.55392 -0.262866 0
M  V30 4713 C 456.503 -1.76127 -0.991147 0
M  V30 4714 C 456.824 -0.571083 -1.8645 0
M  V30 4715 O 456.094 0.413698 -1.91482 0
M  V30 4716 H 454.674 -0.649528 -0.368948 0
M  V30 4717 H 457.336 -1.9281 -0.284655 0
M  V30 4718 H 456.432 -2.6663 -1.62219 0
M  V30 4719 N 456.733 0.527833 -1.48498 0
M  V30 4720 C 457.979 1.28295 -1.57836 0
M  V30 4721 C 458.334 1.9077 -0.249943 0
M  V30 4722 O 457.627 1.76421 0.747402 0
M  V30 4723 C 457.821 2.39275 -2.65485 0
M  V30 4724 C 457.65 1.87679 -4.08664 0
M  V30 4725 C 456.42 1.70187 -4.75778 0
M  V30 4726 C 458.618 1.40409 -4.94762 0
M  V30 4727 N 456.6 1.13238 -6.03366 0
M  V30 4728 C 457.971 0.954216 -6.12613 0
M  V30 4729 C 460.026 1.28732 -4.8097 0
M  V30 4730 C 458.729 0.39915 -7.18192 0
M  V30 4731 C 460.755 0.746244 -5.86673 0
M  V30 4732 C 460.117 0.306457 -7.03733 0
M  V30 4733 H 456.216 0.460408 -0.632099 0
M  V30 4734 H 458.8 0.594913 -1.85388 0
M  V30 4735 H 456.971 3.05572 -2.3975 0
M  V30 4736 H 458.703 3.06308 -2.64495 0
M  V30 4737 H 455.458 1.93772 -4.32145 0
M  V30 4738 H 455.882 0.867687 -6.71417 0
M  V30 4739 H 460.524 1.61338 -3.90807 0
M  V30 4740 H 458.242 0.0607678 -8.08077 0
M  V30 4741 H 461.828 0.659041 -5.78055 0
M  V30 4742 H 460.708 -0.105708 -7.84129 0
M  V30 4743 N 458.211 1.37122 0.776871 0
M  V30 4744 C 459.459 1.31787 1.53221 0
M  V30 4745 C 459.78 -0.0987589 1.9475 0
M  V30 4746 O 459.05 -1.0417 1.65908 0
M  V30 4747 H 457.63 0.484839 0.568278 0
M  V30 4748 H 460.292 1.71556 0.924917 0
M  V30 4749 H 459.388 1.95355 2.43398 0
M  V30 4750 N 459.689 -1.00246 1.21608 0
M  V30 4751 C 461.105 -1.26435 0.973975 0
M  V30 4752 C 461.305 -1.98642 -0.338143 0
M  V30 4753 O 460.361 -2.29026 -1.06317 0
M  V30 4754 C 461.674 -2.08551 2.16626 0
M  V30 4755 C 463.222 -2.21769 2.20879 0
M  V30 4756 C 463.697 -3.07267 3.39633 0
M  V30 4757 N 465.188 -3.14855 3.39736 0
M  V30 4758 C 465.923 -3.81274 4.28273 0
M  V30 4759 N 465.419 -4.497 5.27012 0
M  V30 4760 N 467.212 -3.7794 4.16074 0
M  V30 4761 H 459.363 -0.518089 2.05984 0
M  V30 4762 H 461.626 -0.291368 0.902113 0
M  V30 4763 H 461.332 -1.62847 3.11727 0
M  V30 4764 H 461.206 -3.09303 2.15897 0
M  V30 4765 H 463.593 -2.66691 1.26332 0
M  V30 4766 H 463.674 -1.20478 2.25652 0
M  V30 4767 H 463.318 -2.63047 4.34475 0
M  V30 4768 H 463.248 -4.08678 3.321 0
M  V30 4769 H 465.739 -2.66147 2.6828 0
M  V30 4770 H 466.052 -4.98092 5.90867 0
M  V30 4771 H 464.397 -4.48479 5.30935 0
M  V30 4772 H 467.588 -3.23638 3.38195 0
M  V30 4773 H 467.761 -4.29424 4.85282 0
M  V30 4774 N 461.167 -1.02423 -1.1978 0
M  V30 4775 C 462.413 -0.719051 -1.89625 0
M  V30 4776 C 462.746 0.750083 -1.7913 0
M  V30 4777 O 462.021 1.54574 -1.18056 0
M  V30 4778 C 462.304 -1.16499 -3.40735 0
M  V30 4779 C 462.157 -2.695 -3.60125 0
M  V30 4780 C 463.476 -0.742166 -4.33797 0
M  V30 4781 H 460.595 -0.26269 -0.688595 0
M  V30 4782 H 463.237 -1.27333 -1.41018 0
M  V30 4783 H 461.387 -0.69341 -3.82262 0
M  V30 4784 H 463.059 -3.24569 -3.278 0
M  V30 4785 H 461.302 -3.10113 -3.03336 0
M  V30 4786 H 461.973 -2.95757 -4.66081 0
M  V30 4787 H 464.449 -1.1477 -3.99959 0
M  V30 4788 H 463.325 -1.08213 -5.38127 0
M  V30 4789 H 463.586 0.355747 -4.40666 0
M  V30 4790 N 462.645 1.35699 -0.801477 0
M  V30 4791 C 463.892 1.98913 -0.379459 0
M  V30 4792 C 464.22 1.63592 1.05204 0
M  V30 4793 O 463.475 0.888563 1.74365 0
M  V30 4794 C 463.774 3.53828 -0.504041 0
M  V30 4795 C 463.44 4.09002 -1.8981 0
M  V30 4796 C 462.102 4.23783 -2.27951 0
M  V30 4797 C 464.454 4.38939 -2.81038 0
M  V30 4798 C 461.782 4.65816 -3.56696 0
M  V30 4799 C 464.134 4.82409 -4.09224 0
M  V30 4800 C 462.798 4.95395 -4.4737 0
M  V30 4801 H 462.068 0.727874 -0.138854 0
M  V30 4802 H 464.715 1.61994 -1.02128 0
M  V30 4803 H 463.02 3.91175 0.221242 0
M  V30 4804 H 464.717 4.00687 -0.158361 0
M  V30 4805 H 461.307 3.97946 -1.59176 0
M  V30 4806 H 465.491 4.27077 -2.52821 0
M  V30 4807 H 460.747 4.74059 -3.86106 0
M  V30 4808 H 464.921 5.04535 -4.80018 0
M  V30 4809 H 462.548 5.27724 -5.47185 0
M  V30 4810 N 464.123 0.554532 1.47522 0
M  V30 4811 C 465.073 -0.215008 2.26984 0
M  V30 4812 C 466.057 -0.88774 1.34194 0
M  V30 4813 O 467.249 -0.786489 1.58567 0
M  V30 4814 C 464.378 -1.24604 3.19889 0
M  V30 4815 C 463.464 -0.576857 4.20159 0
M  V30 4816 N 463.855 0.351541 5.04577 0
M  V30 4817 C 462.153 -0.831104 4.38188 0
M  V30 4818 C 462.854 0.739995 5.76974 0
M  V30 4819 N 461.83 0.0954407 5.43516 0
M  V30 4820 H 465.632 0.498843 2.89636 0
M  V30 4821 H 463.146 0.374279 1.58028 0
M  V30 4822 H 465.143 -1.81128 3.75498 0
M  V30 4823 H 463.803 -1.96101 2.58794 0
M  V30 4824 H 464.814 0.725556 5.12792 0
M  V30 4825 H 461.491 -1.53479 3.88266 0
M  V30 4826 H 462.881 1.50271 6.5488 0
M  V30 4827 N 465.601 -1.54893 0.290851 0
M  V30 4828 C 466.548 -2.23138 -0.58974 0
M  V30 4829 C 467.518 -1.21036 -1.13752 0
M  V30 4830 O 468.703 -1.49626 -1.18392 0
M  V30 4831 C 465.843 -2.96811 -1.76061 0
M  V30 4832 C 464.956 -4.13665 -1.24519 0
M  V30 4833 C 464.091 -4.74944 -2.3791 0
M  V30 4834 C 463.13 -5.83963 -1.83451 0
M  V30 4835 N 462.267 -6.39239 -2.90376 0
M  V30 4836 H 467.107 -2.98 -0.00114915 0
M  V30 4837 H 464.644 -1.47096 0.0112006 0
M  V30 4838 H 466.602 -3.37751 -2.44909 0
M  V30 4839 H 465.232 -2.24344 -2.32098 0
M  V30 4840 H 464.284 -3.77737 -0.449288 0
M  V30 4841 H 465.596 -4.92238 -0.806424 0
M  V30 4842 H 464.75 -5.18684 -3.14724 0
M  V30 4843 H 463.489 -3.95682 -2.85109 0
M  V30 4844 H 462.494 -5.39657 -1.05122 0
M  V30 4845 H 463.719 -6.65103 -1.37169 0
M  V30 4846 H 461.665 -5.62864 -3.36927 0
M  V30 4847 H 461.582 -7.13129 -2.50965 0
M  V30 4848 H 462.85 -6.87637 -3.67118 0
M  V30 4849 N 467.08 -0.0183926 -1.57589 0
M  V30 4850 C 468.328 0.661253 -1.90976 0
M  V30 4851 C 468.649 1.73281 -0.894353 0
M  V30 4852 O 467.919 1.9579 0.0656788 0
M  V30 4853 H 466.499 0.247233 -0.704901 0
M  V30 4854 H 469.161 -0.0636639 -1.94796 0
M  V30 4855 H 468.257 1.12083 -2.9128 0
M  V30 4856 N 468.558 1.5553 0.254621 0
M  V30 4857 C 469.974 1.4778 0.602753 0
M  V30 4858 C 470.174 0.707047 1.88688 0
M  V30 4859 O 469.23 0.233288 2.5142 0
M  V30 4860 C 470.543 2.92133 0.712648 0
M  V30 4861 C 472.091 3.02458 0.805488 0
M  V30 4862 C 472.566 4.48102 0.947009 0
M  V30 4863 N 474.057 4.52008 1.01207 0
M  V30 4864 C 474.792 5.61939 1.1407 0
M  V30 4865 N 474.288 6.81697 1.23536 0
M  V30 4866 N 476.081 5.49719 1.17325 0
M  V30 4867 H 468.232 2.04085 -0.588463 0
M  V30 4868 H 470.495 0.926229 -0.202001 0
M  V30 4869 H 470.201 3.51332 -0.160766 0
M  V30 4870 H 470.075 3.42187 1.58707 0
M  V30 4871 H 472.462 2.43344 1.66936 0
M  V30 4872 H 472.543 2.55627 -0.0939266 0
M  V30 4873 H 472.187 5.07824 0.087725 0
M  V30 4874 H 472.117 4.92607 1.86135 0
M  V30 4875 H 474.608 3.65749 0.950577 0
M  V30 4876 H 474.921 7.61228 1.33236 0
M  V30 4877 H 473.266 6.84473 1.20508 0
M  V30 4878 H 476.457 4.55095 1.09573 0
M  V30 4879 H 476.63 6.35432 1.27005 0
M  V30 4880 N 470.036 -0.519951 1.48776 0
M  V30 4881 C 471.261 -1.30447 1.6124 0
M  V30 4882 C 471.686 -1.86055 0.276591 0
M  V30 4883 O 471.044 -1.64915 -0.753183 0
M  V30 4884 C 471.092 -2.42406 2.66967 0
M  V30 4885 O 470.196 -3.45728 2.24824 0
M  V30 4886 H 469.537 -0.385924 0.540332 0
M  V30 4887 H 472.067 -0.624572 1.94834 0
M  V30 4888 H 472.077 -2.88447 2.88552 0
M  V30 4889 H 470.752 -2.01294 3.63941 0
M  V30 4890 H 469.329 -3.05737 2.13494 0
M  V30 4891 N 471.514 -1.37532 -0.769588 0
M  V30 4892 C 472.477 -1.33292 -1.86456 0
M  V30 4893 C 473.477 -0.236537 -1.59051 0
M  V30 4894 O 474.667 -0.492511 -1.67093 0
M  V30 4895 C 471.799 -1.07118 -3.23633 0
M  V30 4896 H 472.992 -2.30692 -1.91628 0
M  V30 4897 H 470.545 -1.22593 -0.969572 0
M  V30 4898 H 471.28 -0.102578 -3.24138 0
M  V30 4899 H 471.065 -1.86479 -3.44917 0
M  V30 4900 H 472.555 -1.06806 -4.03711 0
M  V30 4901 N 472.992 0.995999 -1.22138 0
M  V30 4902 C 473.922 2.10387 -1.01289 0
M  V30 4903 C 474.903 1.69975 0.0651454 0
M  V30 4904 O 476.088 1.9396 -0.0964628 0
M  V30 4905 C 473.218 3.42312 -0.586517 0
M  V30 4906 C 472.172 3.96558 -1.61014 0
M  V30 4907 C 471.498 5.24494 -1.0397 0
M  V30 4908 C 472.798 4.27595 -2.99933 0
M  V30 4909 H 474.492 2.28086 -1.93951 0
M  V30 4910 H 472.038 1.09607 -0.933928 0
M  V30 4911 H 473.991 4.19223 -0.427793 0
M  V30 4912 H 472.715 3.24431 0.375761 0
M  V30 4913 H 471.374 3.21776 -1.75658 0
M  V30 4914 H 471.022 5.02953 -0.0688703 0
M  V30 4915 H 470.722 5.61755 -1.72352 0
M  V30 4916 H 472.246 6.04042 -0.892494 0
M  V30 4917 H 473.66 4.95315 -2.8868 0
M  V30 4918 H 472.057 4.76021 -3.6541 0
M  V30 4919 H 473.127 3.35498 -3.50099 0
M  V30 4920 N 474.47 1.03057 1.19235 0
M  V30 4921 C 475.716 0.729098 1.89241 0
M  V30 4922 C 476.049 -0.740573 1.79525 0
M  V30 4923 O 475.324 -1.53946 1.18874 0
M  V30 4924 C 475.607 1.18304 3.40112 0
M  V30 4925 C 475.46 2.71406 3.5869 0
M  V30 4926 C 476.779 0.765161 4.33397 0
M  V30 4927 H 473.898 0.266338 0.687192 0
M  V30 4928 H 476.54 1.28079 1.40341 0
M  V30 4929 H 474.69 0.713672 3.81889 0
M  V30 4930 H 476.362 3.26303 3.26074 0
M  V30 4931 H 474.605 3.11717 3.01687 0
M  V30 4932 H 475.276 2.98225 4.64506 0
M  V30 4933 H 477.752 1.16889 3.99345 0
M  V30 4934 H 476.628 1.11065 5.37546 0
M  V30 4935 H 476.889 -0.332372 4.40849 0
M  V30 4936 N 475.948 -1.35272 0.808662 0
M  V30 4937 C 476.878 -2.32315 0.234981 0
M  V30 4938 C 477.859 -1.57572 -0.64071 0
M  V30 4939 O 479.044 -1.8563 -0.570551 0
M  V30 4940 C 476.174 -3.41801 -0.615601 0
M  V30 4941 C 475.128 -4.27694 0.161767 0
M  V30 4942 C 474.454 -5.28519 -0.810649 0
M  V30 4943 C 475.754 -5.04231 1.36193 0
M  V30 4944 H 477.448 -2.80543 1.04575 0
M  V30 4945 H 474.994 -1.3488 0.504315 0
M  V30 4946 H 476.947 -4.08693 -1.02702 0
M  V30 4947 H 475.671 -2.92186 -1.45928 0
M  V30 4948 H 474.33 -3.62384 0.554382 0
M  V30 4949 H 473.978 -4.75171 -1.64988 0
M  V30 4950 H 473.678 -5.8686 -0.294822 0
M  V30 4951 H 475.202 -5.98283 -1.22023 0
M  V30 4952 H 476.616 -5.64058 1.02528 0
M  V30 4953 H 475.013 -5.72077 1.81239 0
M  V30 4954 H 476.083 -4.34753 2.14751 0
M  V30 4955 N 477.426 -0.562348 -1.47226 0
M  V30 4956 C 478.358 0.220011 -2.28142 0
M  V30 4957 C 479.371 0.874596 -1.37312 0
M  V30 4958 O 480.56 0.747583 -1.62091 0
M  V30 4959 C 477.66 1.32953 -3.11732 0
M  V30 4960 C 476.833 0.770759 -4.30556 0
M  V30 4961 C 475.892 1.76541 -4.95701 0
M  V30 4962 O 474.918 1.3095 -5.53932 0
M  V30 4963 N 476.12 3.09896 -4.90861 0
M  V30 4964 H 478.885 -0.474107 -2.95926 0
M  V30 4965 H 476.446 -0.398761 -1.56912 0
M  V30 4966 H 478.438 1.99378 -3.5218 0
M  V30 4967 H 477.008 1.92681 -2.46156 0
M  V30 4968 H 476.228 -0.0704056 -3.94137 0
M  V30 4969 H 477.516 0.376872 -5.07402 0
M  V30 4970 H 476.914 3.49577 -4.44761 0
M  V30 4971 H 475.471 3.71865 -5.35313 0
M  V30 4972 N 478.904 1.54736 -0.299062 0
M  V30 4973 C 480.134 2.04215 0.312992 0
M  V30 4974 C 480.542 1.17596 1.48215 0
M  V30 4975 O 479.885 0.193835 1.82674 0
M  V30 4976 C 479.947 3.49696 0.833862 0
M  V30 4977 C 479.611 4.56518 -0.20977 0
M  V30 4978 C 480.608 5.09442 -1.03756 0
M  V30 4979 C 478.293 5.01073 -0.35091 0
M  V30 4980 C 480.287 6.05459 -1.99244 0
M  V30 4981 C 477.974 5.9691 -1.30924 0
M  V30 4982 C 478.972 6.48987 -2.1285 0
M  V30 4983 O 478.66 7.42947 -3.07059 0
M  V30 4984 H 478.392 0.672128 0.0722494 0
M  V30 4985 H 480.946 2.00718 -0.436043 0
M  V30 4986 H 479.176 3.5051 1.63339 0
M  V30 4987 H 480.865 3.82381 1.36159 0
M  V30 4988 H 481.631 4.75816 -0.939376 0
M  V30 4989 H 477.51 4.60168 0.276813 0
M  V30 4990 H 481.054 6.46031 -2.63229 0
M  V30 4991 H 476.951 6.29953 -1.40815 0
M  V30 4992 H 477.719 7.60743 -3.02015 0
M  V30 4993 N 480.382 0.0267497 1.57577 0
M  V30 4994 C 481.312 -0.954308 2.13108 0
M  V30 4995 C 482.293 -1.34088 1.04663 0
M  V30 4996 O 483.478 -1.41992 1.32484 0
M  V30 4997 C 480.608 -2.23744 2.65624 0
M  V30 4998 C 479.562 -1.99168 3.78835 0
M  V30 4999 C 478.888 -3.33726 4.17769 0
M  V30 5000 C 480.188 -1.33277 5.0501 0
M  V30 5001 H 481.882 -0.491848 2.95332 0
M  V30 5002 H 479.428 -0.23514 1.42067 0
M  V30 5003 H 481.381 -2.92754 3.03106 0
M  V30 5004 H 480.105 -2.72151 1.80558 0
M  V30 5005 H 478.764 -1.32577 3.41788 0
M  V30 5006 H 478.412 -3.79888 3.29688 0
M  V30 5007 H 478.112 -3.18089 4.94058 0
M  V30 5008 H 479.636 -4.04008 4.57832 0
M  V30 5009 H 481.05 -1.92283 5.40093 0
M  V30 5010 H 479.447 -1.28045 5.8628 0
M  V30 5011 H 480.517 -0.305411 4.83937 0
M  V30 5012 N 481.861 -1.55662 -0.24637 0
M  V30 5013 C 483.277 -1.48098 -0.594907 0
M  V30 5014 C 483.477 -0.717044 -1.8831 0
M  V30 5015 O 482.533 -0.246618 -2.51293 0
M  V30 5016 C 483.846 -2.92507 -0.697146 0
M  V30 5017 C 485.394 -3.02881 -0.789436 0
M  V30 5018 C 485.869 -4.48598 -0.923232 0
M  V30 5019 N 487.36 -4.52538 -0.988088 0
M  V30 5020 C 488.095 -5.62536 -1.11089 0
M  V30 5021 N 487.591 -6.82342 -1.19919 0
M  V30 5022 N 489.384 -5.50334 -1.14408 0
M  V30 5023 H 481.535 -2.0377 0.599278 0
M  V30 5024 H 483.798 -0.925145 0.20691 0
M  V30 5025 H 483.504 -3.51242 0.179396 0
M  V30 5026 H 483.378 -3.43024 -1.5689 0
M  V30 5027 H 485.765 -2.44226 -1.65643 0
M  V30 5028 H 485.846 -2.55574 0.107482 0
M  V30 5029 H 485.49 -5.07864 -0.0607927 0
M  V30 5030 H 485.42 -4.93587 -1.8352 0
M  V30 5031 H 487.911 -3.66248 -0.931167 0
M  V30 5032 H 488.224 -7.61924 -1.29197 0
M  V30 5033 H 486.569 -6.85102 -1.16876 0
M  V30 5034 H 489.76 -4.5567 -1.07158 0
M  V30 5035 H 489.933 -6.36096 -1.23634 0
M  V30 5036 N 483.339 0.512053 -1.4905 0
M  V30 5037 C 484.585 1.26874 -1.58212 0
M  V30 5038 C 484.918 1.9241 -0.263073 0
M  V30 5039 O 484.193 1.80181 0.732476 0
M  V30 5040 C 484.476 2.34428 -2.73341 0
M  V30 5041 C 484.329 1.73466 -4.15006 0
M  V30 5042 C 485.648 3.36073 -2.84154 0
M  V30 5043 H 482.767 0.459924 -0.575881 0
M  V30 5044 H 485.409 0.568587 -1.81293 0
M  V30 5045 H 483.559 2.94146 -2.53792 0
M  V30 5046 H 485.231 1.17661 -4.46042 0
M  V30 5047 H 483.474 1.03921 -4.21168 0
M  V30 5048 H 484.145 2.51426 -4.91415 0
M  V30 5049 H 486.621 2.86332 -3.01916 0
M  V30 5050 H 485.497 4.08703 -3.66406 0
M  V30 5051 H 485.758 3.97725 -1.93048 0
M  V30 5052 N 484.817 1.37938 0.762283 0
M  V30 5053 C 486.228 1.30094 1.33912 0
M  V30 5054 C 486.579 -0.0472026 1.96143 0
M  V30 5055 O 485.704 -0.94917 1.94473 0
M  V30 5056 C 486.299 2.35592 2.43478 0
M  V30 5057 C 484.858 2.31353 2.96905 0
M  V30 5058 C 484.005 2.18919 1.70205 0
M  V30 5059 H 486.956 1.48423 0.561816 0
M  V30 5060 H 486.977 2.00806 3.23199 0
M  V30 5061 H 486.489 3.33701 1.98155 0
M  V30 5062 H 484.59 1.36799 3.46579 0
M  V30 5063 H 484.703 3.25147 3.51875 0
M  V30 5064 H 483.067 1.65624 1.93496 0
M  V30 5065 H 483.85 3.18956 1.26973 0
M  V30 5066 N 486.295 -0.989507 1.22664 0
M  V30 5067 C 487.225 -2.09847 1.02404 0
M  V30 5068 C 488.206 -1.70007 -0.0561303 0
M  V30 5069 O 489.391 -1.93906 0.106748 0
M  V30 5070 C 486.521 -3.41996 0.604663 0
M  V30 5071 C 485.475 -3.95699 1.63115 0
M  V30 5072 C 484.801 -5.23936 1.0675 0
M  V30 5073 C 486.101 -4.25999 3.02196 0
M  V30 5074 H 487.795 -2.27054 1.95158 0
M  V30 5075 H 485.341 -1.09111 0.939727 0
M  V30 5076 H 487.294 -4.1899 0.45002 0
M  V30 5077 H 486.018 -3.24626 -0.35855 0
M  V30 5078 H 484.677 -3.2084 1.77362 0
M  V30 5079 H 484.325 -5.02909 0.0955422 0
M  V30 5080 H 484.025 -5.60833 1.75328 0
M  V30 5081 H 485.549 -6.0356 0.924516 0
M  V30 5082 H 486.963 -4.93777 2.91303 0
M  V30 5083 H 485.36 -4.74076 3.67929 0
M  V30 5084 H 486.43 -3.33636 3.51873 0
M  V30 5085 N 487.773 -1.03688 -1.18687 0
M  V30 5086 C 489.019 -0.739123 -1.88851 0
M  V30 5087 C 489.352 0.731042 -1.79915 0
M  V30 5088 O 488.627 1.53313 -1.19688 0
M  V30 5089 C 488.91 -1.20106 -3.3948 0
M  V30 5090 C 488.763 -2.73304 -3.57246 0
M  V30 5091 C 490.082 -0.788134 -4.32986 0
M  V30 5092 H 487.201 -0.269978 -0.68577 0
M  V30 5093 H 489.843 -1.28822 -1.3966 0
M  V30 5094 H 487.993 -0.733915 -3.81505 0
M  V30 5095 H 489.665 -3.28027 -3.24339 0
M  V30 5096 H 487.908 -3.13313 -3.00029 0
M  V30 5097 H 488.579 -3.00684 -4.62918 0
M  V30 5098 H 491.055 -1.19005 -3.98719 0
M  V30 5099 H 489.931 -1.13915 -5.36949 0
M  V30 5100 H 490.192 0.308988 -4.41019 0
M  V30 5101 N 489.251 1.34841 -0.815825 0
M  V30 5102 C 490.528 1.92908 -0.323416 0
M  V30 5103 C 490.908 1.74479 1.18828 0
M  V30 5104 O 490.256 1.11928 1.99209 0
M  V30 5105 C 490.466 3.40957 -0.744952 0
M  V30 5106 C 491.814 4.18107 -0.739716 0
M  V30 5107 O 492.838 3.49511 -0.68708 0
M  V30 5108 O 491.697 5.40517 -0.806456 0
M  V30 5109 H 488.791 0.822436 -0.0867646 0
M  V30 5110 H 491.337 1.4386 -0.90014 0
M  V30 5111 H 490.109 3.4814 -1.78646 0
M  V30 5112 H 489.732 3.97341 -0.143535 0
M  V30 5113 N 490.729 0.570148 1.46925 0
M  V30 5114 C 492.145 0.23087 1.57921 0
M  V30 5115 C 492.345 -1.26676 1.56702 0
M  V30 5116 O 491.401 -2.04774 1.47729 0
M  V30 5117 C 492.714 0.868973 2.8787 0
M  V30 5118 C 494.262 0.841397 3.01479 0
M  V30 5119 C 494.737 1.45881 4.34146 0
M  V30 5120 N 496.228 1.42258 4.40814 0
M  V30 5121 C 496.963 1.8698 5.42057 0
M  V30 5122 N 496.459 2.39618 6.50042 0
M  V30 5123 N 498.252 1.77972 5.33181 0
M  V30 5124 H 490.403 1.54301 1.45962 0
M  V30 5125 H 492.666 0.644224 0.69547 0
M  V30 5126 H 492.372 1.922 2.94537 0
M  V30 5127 H 492.246 0.369682 3.75384 0
M  V30 5128 H 494.633 -0.202973 2.94401 0
M  V30 5129 H 494.714 1.37858 2.15474 0
M  V30 5130 H 494.358 2.50231 4.4198 0
M  V30 5131 H 494.288 0.896958 5.18905 0
M  V30 5132 H 496.779 1.03768 3.63374 0
M  V30 5133 H 497.092 2.71633 7.23488 0
M  V30 5134 H 495.437 2.43636 6.50897 0
M  V30 5135 H 498.628 1.36617 4.4772 0
M  V30 5136 H 498.801 2.13143 6.11943 0
M  V30 5137 N 492.207 -1.54576 0.307264 0
M  V30 5138 C 493.17 -2.22423 -0.553224 0
M  V30 5139 C 494.17 -1.21231 -1.05639 0
M  V30 5140 O 495.36 -1.45923 -0.951419 0
M  V30 5141 C 492.492 -2.91552 -1.76664 0
M  V30 5142 H 493.685 -2.99874 0.0396484 0
M  V30 5143 H 491.238 -1.56192 0.0581629 0
M  V30 5144 H 491.973 -2.18196 -2.39918 0
M  V30 5145 H 491.758 -3.65738 -1.41343 0
M  V30 5146 H 493.248 -3.43292 -2.37783 0
M  V30 5147 N 493.685 -0.035106 -1.57561 0
M  V30 5148 C 494.913 0.652258 -1.9635 0
M  V30 5149 C 495.328 1.65317 -0.911897 0
M  V30 5150 O 494.685 1.82194 0.105657 0
M  V30 5151 C 494.736 1.35337 -3.35211 0
M  V30 5152 O 494.457 0.392548 -4.36338 0
M  V30 5153 C 495.958 2.13199 -3.88666 0
M  V30 5154 H 493.178 0.179444 -0.646561 0
M  V30 5155 H 495.722 -0.0966459 -2.04271 0
M  V30 5156 H 493.877 2.05362 -3.28489 0
M  V30 5157 H 494.291 0.891097 -5.16875 0
M  V30 5158 H 495.765 2.577 -4.88154 0
M  V30 5159 H 496.242 2.97353 -3.23231 0
M  V30 5160 H 496.848 1.48118 -3.98674 0
M  V30 5161 N 495.163 1.55791 0.238111 0
M  V30 5162 C 496.403 1.79801 0.972163 0
M  V30 5163 C 496.767 0.606027 1.82185 0
M  V30 5164 O 497.968 0.725079 2.58836 0
M  V30 5165 C 496.239 3.08608 1.80266 0
M  V30 5166 S 497.798 3.53872 2.59461 0
M  V30 5167 H 494.616 0.631418 0.326852 0
M  V30 5168 H 497.218 1.94031 0.239212 0
M  V30 5169 H 495.922 3.93419 1.1683 0
M  V30 5170 H 495.453 2.9714 2.57821 0
M  V30 5171 H 497.468 3.15899 3.82651 0
M  V30 5172 N 496.642 -0.504142 1.49319 0
M  V30 5173 C 497.572 -1.61473 1.68667 0
M  V30 5174 C 498.553 -1.61455 0.535378 0
M  V30 5175 O 499.738 -1.78245 0.770868 0
M  V30 5176 C 496.868 -2.99971 1.75028 0
M  V30 5177 C 495.822 -3.14854 2.89916 0
M  V30 5178 C 495.148 -4.54671 2.81387 0
M  V30 5179 C 496.448 -2.95176 4.30893 0
M  V30 5180 H 498.142 -1.45535 2.61648 0
M  V30 5181 H 495.688 -0.698711 1.25913 0
M  V30 5182 H 497.641 -3.77562 1.8715 0
M  V30 5183 H 496.365 -3.1699 0.786441 0
M  V30 5184 H 495.024 -2.39687 2.77391 0
M  V30 5185 H 494.672 -4.68562 1.82917 0
M  V30 5186 H 494.372 -4.6557 3.58494 0
M  V30 5187 H 495.896 -5.34327 2.95512 0
M  V30 5188 H 497.31 -3.62538 4.44116 0
M  V30 5189 H 495.707 -3.17549 5.09198 0
M  V30 5190 H 496.777 -1.91332 4.45556 0
M  V30 5191 N 498.12 -1.38341 -0.754957 0
M  V30 5192 C 499.536 -1.19508 -1.05783 0
M  V30 5193 C 499.736 -0.0428005 -2.01455 0
M  V30 5194 O 498.792 0.611861 -2.44975 0
M  V30 5195 C 500.105 -2.52091 -1.63923 0
M  V30 5196 C 501.653 -2.58762 -1.76101 0
M  V30 5197 C 502.128 -3.91517 -2.37652 0
M  V30 5198 N 503.619 -3.93049 -2.45085 0
M  V30 5199 C 504.354 -4.9253 -2.93602 0
M  V30 5200 N 503.85 -6.02408 -3.42165 0
M  V30 5201 N 505.643 -4.79921 -2.92629 0
M  V30 5202 H 497.794 -2.1206 -0.120056 0
M  V30 5203 H 500.057 -0.94089 -0.11589 0
M  V30 5204 H 499.763 -3.36858 -1.01093 0
M  V30 5205 H 499.637 -2.70388 -2.63003 0
M  V30 5206 H 502.024 -1.74391 -2.38058 0
M  V30 5207 H 502.105 -2.44333 -0.757294 0
M  V30 5208 H 501.749 -4.76309 -1.76329 0
M  V30 5209 H 501.679 -4.03256 -3.38662 0
M  V30 5210 H 504.17 -3.13685 -2.10736 0
M  V30 5211 H 504.483 -6.74248 -3.77637 0
M  V30 5212 H 502.828 -6.0603 -3.40225 0
M  V30 5213 H 506.019 -3.93194 -2.54001 0
M  V30 5214 H 506.192 -5.57601 -3.30128 0
M  V30 5215 N 499.598 0.982988 -1.23187 0
M  V30 5216 C 500.823 1.76455 -1.08988 0
M  V30 5217 C 501.248 1.84726 0.354691 0
M  V30 5218 O 500.606 1.30699 1.25649 0
M  V30 5219 C 500.654 3.17094 -1.71708 0
M  V30 5220 O 499.758 4.00648 -0.977477 0
M  V30 5221 H 499.099 0.542988 -0.382177 0
M  V30 5222 H 501.629 1.23413 -1.63188 0
M  V30 5223 H 501.639 3.67684 -1.76841 0
M  V30 5224 H 500.314 3.10389 -2.76823 0
M  V30 5225 H 498.891 3.59161 -1.0029 0
M  V30 5226 N 501.076 1.04316 1.18135 0
M  V30 5227 C 502.304 0.768117 1.92113 0
M  V30 5228 C 502.719 -0.675057 1.76319 0
M  V30 5229 O 502.076 -1.46038 1.09449 0
M  V30 5230 C 502.127 1.12808 3.43448 0
M  V30 5231 O 501.848 2.5146 3.58747 0
M  V30 5232 C 503.349 0.8779 4.3452 0
M  V30 5233 H 500.569 0.279937 0.609817 0
M  V30 5234 H 503.113 1.39149 1.49859 0
M  V30 5235 H 501.268 0.549623 3.83481 0
M  V30 5236 H 501.682 2.65313 4.52448 0
M  V30 5237 H 503.156 1.17959 5.39249 0
M  V30 5238 H 503.633 -0.187239 4.38801 0
M  V30 5239 H 504.239 1.43977 4.00188 0
M  V30 5240 N 502.554 -1.34406 0.822964 0
M  V30 5241 C 503.501 -2.29519 0.24284 0
M  V30 5242 C 504.471 -1.5359 -0.632397 0
M  V30 5243 O 505.656 -1.8196 -0.57403 0
M  V30 5244 C 502.796 -3.40032 -0.58925 0
M  V30 5245 C 501.909 -4.30899 0.308236 0
M  V30 5246 C 501.044 -5.28515 -0.533425 0
M  V30 5247 C 500.083 -6.1102 0.363444 0
M  V30 5248 N 499.22 -7.00725 -0.439147 0
M  V30 5249 H 504.06 -2.78537 1.05929 0
M  V30 5250 H 501.597 -1.3707 0.533872 0
M  V30 5251 H 503.555 -4.0279 -1.087 0
M  V30 5252 H 502.185 -2.92248 -1.37081 0
M  V30 5253 H 501.237 -3.69002 0.924203 0
M  V30 5254 H 502.549 -4.88717 0.997862 0
M  V30 5255 H 501.703 -5.96725 -1.09565 0
M  V30 5256 H 500.442 -4.71235 -1.25656 0
M  V30 5257 H 499.447 -5.41743 0.937812 0
M  V30 5258 H 500.672 -6.70381 1.08469 0
M  V30 5259 H 498.618 -6.45913 -1.14595 0
M  V30 5260 H 498.535 -7.55756 0.19209 0
M  V30 5261 H 499.803 -7.73263 -0.984124 0
M  V30 5262 N 504.032 -0.577932 -1.46621 0
M  V30 5263 C 505.279 -0.0616879 -2.02406 0
M  V30 5264 C 505.607 1.29638 -1.44997 0
M  V30 5265 O 504.862 1.86176 -0.60308 0
M  V30 5266 C 505.161 0.0590832 -3.57351 0
M  V30 5267 C 504.827 -1.23077 -4.33777 0
M  V30 5268 C 503.489 -1.58416 -4.54376 0
M  V30 5269 C 505.841 -2.08457 -4.77698 0
M  V30 5270 C 503.169 -2.78943 -5.16147 0
M  V30 5271 C 505.521 -3.28204 -5.408 0
M  V30 5272 C 504.185 -3.63832 -5.59627 0
M  V30 5273 H 503.455 -0.0225732 -0.740656 0
M  V30 5274 H 506.102 -0.753609 -1.76048 0
M  V30 5275 H 504.407 0.834104 -3.82818 0
M  V30 5276 H 506.104 0.474202 -3.98186 0
M  V30 5277 H 502.694 -0.945652 -4.18038 0
M  V30 5278 H 506.878 -1.82459 -4.61544 0
M  V30 5279 H 502.134 -3.06689 -5.28916 0
M  V30 5280 H 506.308 -3.94634 -5.73792 0
M  V30 5281 H 503.935 -4.57315 -6.07262 0
M  V30 5282 N 505.51 1.54411 -0.315457 0
M  V30 5283 C 506.738 2.04833 0.291738 0
M  V30 5284 C 507.153 1.19203 1.46411 0
M  V30 5285 O 506.51 0.220867 1.81159 0
M  V30 5286 C 506.561 3.53969 0.73404 0
M  V30 5287 O 506.282 4.36346 -0.391682 0
M  V30 5288 C 507.783 4.2045 1.40489 0
M  V30 5289 H 505.003 0.668195 0.0612947 0
M  V30 5290 H 507.547 1.99276 -0.45929 0
M  V30 5291 H 505.702 3.5984 1.43506 0
M  V30 5292 H 506.116 5.24481 -0.0447088 0
M  V30 5293 H 507.59 5.26278 1.66539 0
M  V30 5294 H 508.067 3.71067 2.3496 0
M  V30 5295 H 508.673 4.18694 0.746662 0
M  V30 5296 N 506.988 0.0434614 1.5754 0
M  V30 5297 C 508.237 -0.631454 1.91561 0
M  V30 5298 C 508.55 -1.72457 0.92292 0
M  V30 5299 O 509.756 -2.45712 1.15489 0
M  V30 5300 C 508.212 -1.17447 3.40197 0
M  V30 5301 C 507.82 -0.113867 4.47855 0
M  V30 5302 C 509.564 -1.82507 3.83264 0
M  V30 5303 C 507.471 -0.669326 5.876 0
M  V30 5304 H 506.401 -0.239629 0.714908 0
M  V30 5305 H 509.052 0.111097 1.83163 0
M  V30 5306 H 507.434 -1.96909 3.43574 0
M  V30 5307 H 508.608 0.659348 4.56058 0
M  V30 5308 H 506.923 0.438821 4.14081 0
M  V30 5309 H 509.52 -2.25047 4.85034 0
M  V30 5310 H 509.863 -2.67365 3.19095 0
M  V30 5311 H 510.396 -1.09712 3.82372 0
M  V30 5312 H 507.135 0.141449 6.55347 0
M  V30 5313 H 506.655 -1.4107 5.82974 0
M  V30 5314 H 508.334 -1.15463 6.36614 0
M  V30 5315 N 508.466 -1.55915 -0.229846 0
M  V30 5316 C 509.696 -1.82352 -0.971152 0
M  V30 5317 C 510.104 -0.619231 -1.7878 0
M  V30 5318 O 509.447 0.421597 -1.78797 0
M  V30 5319 C 509.509 -3.02399 -1.9441 0
M  V30 5320 C 509.173 -4.37739 -1.31277 0
M  V30 5321 C 510.17 -5.15074 -0.706757 0
M  V30 5322 C 507.855 -4.84454 -1.32702 0
M  V30 5323 C 509.849 -6.37281 -0.123413 0
M  V30 5324 C 507.536 -6.06605 -0.739831 0
M  V30 5325 C 508.534 -6.82858 -0.139071 0
M  V30 5326 O 508.222 -8.027 0.439007 0
M  V30 5327 H 507.954 -0.61035 -0.290601 0
M  V30 5328 H 510.508 -2.03839 -0.252746 0
M  V30 5329 H 508.738 -2.76709 -2.70128 0
M  V30 5330 H 510.427 -3.15779 -2.55026 0
M  V30 5331 H 511.193 -4.80093 -0.688131 0
M  V30 5332 H 507.072 -4.25081 -1.78402 0
M  V30 5333 H 510.616 -6.96741 0.346124 0
M  V30 5334 H 506.513 -6.4106 -0.755841 0
M  V30 5335 H 507.281 -8.17824 0.332521 0
M  V30 5336 N 509.944 0.496216 -1.49584 0
M  V30 5337 C 510.892 1.61805 -1.67098 0
M  V30 5338 C 511.886 1.60667 -0.536877 0
M  V30 5339 O 513.092 1.65118 -0.716654 0
M  V30 5340 H 509.467 0.53646 -0.526986 0
M  V30 5341 H 511.438 1.44187 -2.61252 0
M  V30 5342 C 510.187 2.99912 -1.75921 0
M  V30 5343 H 509.51 3.01496 -2.62565 0
M  V30 5344 H 510.95 3.77931 -1.92209 0
M  V30 5345 C 509.409 3.33092 -0.505088 0
M  V30 5346 O 509.939 4.00019 0.367085 0
M  V30 5347 N 508.145 2.88278 -0.366599 0
M  V30 5348 H 507.692 2.33989 -1.07735 0
M  V30 5349 H 507.65 3.10846 0.47142 0
M  V30 5350 N 511.423 1.38739 0.74761 0
M  V30 5351 C 512.371 1.36573 1.88283 0
M  V30 5352 C 513.365 0.250712 1.67534 0
M  V30 5353 O 514.571 0.420073 1.7503 0
M  V30 5354 H 510.946 0.42619 0.619569 0
M  V30 5355 H 512.917 2.32356 1.87226 0
M  V30 5356 C 511.666 1.21361 3.25832 0
M  V30 5357 H 510.989 2.06424 3.42388 0
M  V30 5358 H 512.429 1.23901 4.05493 0
M  V30 5359 C 510.888 -0.0790099 3.36807 0
M  V30 5360 O 511.418 -1.05385 3.8763 0
M  V30 5361 N 509.624 -0.13785 2.90273 0
M  V30 5362 H 509.171 0.656128 2.49104 0
M  V30 5363 H 509.129 -1.00228 2.97996 0
M  V30 5364 N 512.901 -0.976442 1.23707 0
M  V30 5365 C 513.834 -2.06793 0.964973 0
M  V30 5366 C 514.812 -1.62304 -0.0981472 0
M  V30 5367 O 515.996 -1.88464 0.0369477 0
M  V30 5368 C 513.123 -3.35636 0.454522 0
M  V30 5369 C 512.169 -3.99069 1.50485 0
M  V30 5370 S 513.002 -4.37814 3.0835 0
M  V30 5371 C 514.158 -5.69805 2.58985 0
M  V30 5372 H 514.391 -2.29556 1.88922 0
M  V30 5373 H 511.924 -1.11317 1.06995 0
M  V30 5374 H 513.882 -4.10162 0.166626 0
M  V30 5375 H 512.543 -3.10876 -0.448871 0
M  V30 5376 H 511.736 -4.91896 1.09792 0
M  V30 5377 H 511.338 -3.30938 1.7423 0
M  V30 5378 H 513.63 -6.46919 2.01252 0
M  V30 5379 H 514.573 -6.15345 3.50366 0
M  V30 5380 H 514.981 -5.27994 1.99705 0
M  V30 5381 N 514.379 -1.04941 -1.1758 0
M  V30 5382 C 515.626 -0.757989 -1.87779 0
M  V30 5383 C 515.954 0.714827 -1.80888 0
M  V30 5384 O 515.209 1.53824 -1.20982 0
M  V30 5385 C 515.508 -1.18062 -3.37337 0
M  V30 5386 C 515.174 -2.65521 -3.6443 0
M  V30 5387 C 513.836 -3.05804 -3.71534 0
M  V30 5388 C 516.188 -3.60822 -3.76108 0
M  V30 5389 C 513.516 -4.40256 -3.87803 0
M  V30 5390 C 515.868 -4.95005 -3.93895 0
M  V30 5391 C 514.532 -5.34945 -3.99237 0
M  V30 5392 H 513.802 -0.277368 -0.68713 0
M  V30 5393 H 516.449 -1.31603 -1.39115 0
M  V30 5394 H 514.754 -0.541525 -3.8804 0
M  V30 5395 H 516.451 -0.932368 -3.9001 0
M  V30 5396 H 513.041 -2.33324 -3.59524 0
M  V30 5397 H 517.225 -3.30841 -3.69943 0
M  V30 5398 H 512.481 -4.70707 -3.90186 0
M  V30 5399 H 516.655 -5.68746 -4.01872 0
M  V30 5400 H 514.282 -6.39135 -4.11596 0
M  V30 5401 N 515.857 1.33968 -0.830081 0
M  V30 5402 C 517.097 1.99879 -0.427521 0
M  V30 5403 C 517.461 1.64355 0.992546 0
M  V30 5404 O 518.662 2.23164 1.49837 0
M  V30 5405 C 516.933 3.51771 -0.631815 0
M  V30 5406 S 518.492 4.37608 -0.323168 0
M  V30 5407 H 515.31 0.692485 -0.161202 0
M  V30 5408 H 517.912 1.63129 -1.07745 0
M  V30 5409 H 516.616 3.75113 -1.66488 0
M  V30 5410 H 516.147 3.93386 0.0325936 0
M  V30 5411 H 518.162 4.88683 0.860432 0
M  V30 5412 N 517.335 0.585699 1.46312 0
M  V30 5413 C 518.298 -0.135673 2.28798 0
M  V30 5414 C 519.298 -0.815988 1.38558 0
M  V30 5415 O 520.488 -0.667487 1.60904 0
M  V30 5416 C 517.62 -1.20163 3.1902 0
M  V30 5417 H 518.813 0.589257 2.94054 0
M  V30 5418 H 516.366 0.343794 1.52472 0
M  V30 5419 H 517.101 -1.95804 2.58517 0
M  V30 5420 H 516.886 -0.718282 3.85465 0
M  V30 5421 H 518.376 -1.70749 3.81096 0
M  V30 5422 N 518.813 -1.54241 0.323641 0
M  V30 5423 C 520.061 -2.00174 -0.278359 0
M  V30 5424 C 520.382 -1.2134 -1.52648 0
M  V30 5425 O 519.652 -0.315244 -1.93347 0
M  V30 5426 H 518.232 -0.739463 -0.105845 0
M  V30 5427 H 520.894 -1.89864 0.440204 0
M  V30 5428 H 519.99 -3.07486 -0.5347 0
M  V30 5429 N 520.291 -0.0518155 -1.57515 0
M  V30 5430 C 521.538 0.621823 -1.92716 0
M  V30 5431 C 521.866 1.70813 -0.930229 0
M  V30 5432 O 521.121 1.95616 0.0573708 0
M  V30 5433 C 521.42 1.25607 -3.34601 0
M  V30 5434 C 521.086 0.297901 -4.49915 0
M  V30 5435 C 519.748 0.034243 -4.81188 0
M  V30 5436 C 522.1 -0.358738 -5.19964 0
M  V30 5437 C 519.428 -0.893479 -5.79857 0
M  V30 5438 C 521.78 -1.27466 -6.19625 0
M  V30 5439 C 520.444 -1.54698 -6.49326 0
M  V30 5440 H 519.714 0.227541 -0.705199 0
M  V30 5441 H 522.361 -0.118432 -1.91133 0
M  V30 5442 H 520.666 2.07161 -3.32553 0
M  V30 5443 H 522.363 1.78424 -3.59118 0
M  V30 5444 H 518.953 0.513581 -4.25512 0
M  V30 5445 H 523.137 -0.168133 -4.96015 0
M  V30 5446 H 518.393 -1.11193 -6.01204 0
M  V30 5447 H 522.567 -1.78953 -6.73015 0
M  V30 5448 H 520.194 -2.26748 -7.25596 0
M  V30 5449 N 521.769 1.56035 0.221574 0
M  V30 5450 C 522.719 1.8881 1.27807 0
M  V30 5451 C 523.703 0.751177 1.42289 0
M  V30 5452 O 524.895 1.01359 1.45104 0
M  V30 5453 C 522.024 2.20828 2.6285 0
M  V30 5454 C 521.11 3.40912 2.52269 0
M  V30 5455 N 521.501 4.59531 2.1134 0
M  V30 5456 C 519.799 3.44526 2.83228 0
M  V30 5457 C 520.5 5.41689 2.1201 0
M  V30 5458 N 519.476 4.814 2.52497 0
M  V30 5459 H 523.278 2.78036 0.952529 0
M  V30 5460 H 520.792 1.566 0.430134 0
M  V30 5461 H 522.789 2.42483 3.39127 0
M  V30 5462 H 521.449 1.32914 2.9625 0
M  V30 5463 H 522.46 4.8469 1.82472 0
M  V30 5464 H 519.137 2.66956 3.21 0
M  V30 5465 H 520.527 6.46643 1.82491 0
M  V30 5466 N 523.247 -0.488276 1.49845 0
M  V30 5467 C 524.157 -1.61451 1.70207 0
M  V30 5468 C 525.173 -1.63877 0.584846 0
M  V30 5469 O 526.349 -1.82063 0.861107 0
M  V30 5470 C 523.414 -2.9776 1.77594 0
M  V30 5471 C 522.475 -3.05861 3.01243 0
M  V30 5472 C 521.708 -4.35668 3.08268 0
M  V30 5473 O 521.931 -5.25197 2.22541 0
M  V30 5474 O 520.865 -4.49005 4.00847 0
M  V30 5475 H 524.691 -1.47199 2.65643 0
M  V30 5476 H 522.276 -0.665939 1.33737 0
M  V30 5477 H 524.158 -3.7875 1.84732 0
M  V30 5478 H 522.833 -3.12248 0.8534 0
M  V30 5479 H 521.74 -2.24012 2.99616 0
M  V30 5480 H 523.073 -2.96304 3.9302 0
M  V30 5481 N 524.725 -1.39134 -0.740242 0
M  V30 5482 C 525.973 -1.35803 -1.49673 0
M  V30 5483 C 526.294 0.0470897 -1.94943 0
M  V30 5484 O 525.564 0.997347 -1.68611 0
M  V30 5485 H 524.144 -0.499736 -0.555224 0
M  V30 5486 H 526.806 -1.73947 -0.879107 0
M  V30 5487 H 525.902 -2.0174 -2.38133 0
M  V30 5488 N 526.204 0.969867 -1.24223 0
M  V30 5489 C 527.452 1.70918 -1.0785 0
M  V30 5490 C 527.773 1.91186 0.383763 0
M  V30 5491 O 527.043 1.48806 1.27411 0
M  V30 5492 H 525.623 0.633334 -0.396103 0
M  V30 5493 H 528.285 1.16689 -1.56108 0
M  V30 5494 H 527.381 2.69455 -1.57482 0
M  V30 5495 N 527.682 1.05563 1.17022 0
M  V30 5496 C 529.098 0.777684 1.39371 0
M  V30 5497 C 529.298 -0.626269 1.91521 0
M  V30 5498 O 528.354 -1.38806 2.10924 0
M  V30 5499 C 529.667 1.83642 2.3811 0
M  V30 5500 C 531.215 1.85907 2.51809 0
M  V30 5501 C 531.69 2.90813 3.53824 0
M  V30 5502 N 533.181 2.898 3.61345 0
M  V30 5503 C 533.916 3.6762 4.40049 0
M  V30 5504 N 533.412 4.55237 5.22237 0
M  V30 5505 N 535.205 3.56044 4.34959 0
M  V30 5506 H 527.356 1.9614 0.815047 0
M  V30 5507 H 529.619 0.849527 0.420722 0
M  V30 5508 H 529.325 2.84425 2.06871 0
M  V30 5509 H 529.199 1.6812 3.37662 0
M  V30 5510 H 531.586 0.857865 2.82356 0
M  V30 5511 H 531.667 2.05506 1.52318 0
M  V30 5512 H 531.311 3.91122 3.24015 0
M  V30 5513 H 531.241 2.68465 4.53028 0
M  V30 5514 H 533.732 2.26274 3.02669 0
M  V30 5515 H 534.045 5.11291 5.79484 0
M  V30 5516 H 532.39 4.59296 5.21605 0
M  V30 5517 H 535.581 2.86986 3.69806 0
M  V30 5518 H 535.754 4.16938 4.96051 0
M  V30 5519 N 529.16 -1.33526 0.837174 0
M  V30 5520 C 530.437 -1.92369 0.354065 0
M  V30 5521 C 530.817 -1.76348 -1.16038 0
M  V30 5522 O 530.165 -1.15083 -1.97403 0
M  V30 5523 C 530.375 -3.39728 0.799101 0
M  V30 5524 C 531.723 -4.16877 0.806139 0
M  V30 5525 O 532.747 -3.48373 0.742597 0
M  V30 5526 O 531.606 -5.39166 0.892345 0
M  V30 5527 H 528.7 -0.820952 0.0998378 0
M  V30 5528 H 531.246 -1.42409 0.922913 0
M  V30 5529 H 530.018 -3.45254 1.84162 0
M  V30 5530 H 529.641 -3.97062 0.206731 0
M  V30 5531 N 530.638 -0.59345 -1.46 0
M  V30 5532 C 531.863 -0.0872365 -2.07216 0
M  V30 5533 C 532.288 1.2131 -1.43755 0
M  V30 5534 O 531.646 1.73528 -0.525152 0
M  V30 5535 C 531.694 0.0538197 -3.6056 0
M  V30 5536 O 530.798 1.10765 -3.97247 0
M  V30 5537 H 530.139 -0.0676598 -0.660544 0
M  V30 5538 H 532.669 -0.819445 -1.87473 0
M  V30 5539 H 532.679 0.256567 -4.07193 0
M  V30 5540 H 531.354 -0.895739 -4.0614 0
M  V30 5541 H 529.931 0.882501 -3.62307 0
M  V30 5542 N 532.116 1.54067 -0.331816 0
M  V30 5543 C 533.356 2.02625 0.26876 0
M  V30 5544 C 533.72 1.21462 1.48697 0
M  V30 5545 O 534.921 1.59863 2.16096 0
M  V30 5546 C 533.192 3.52554 0.586577 0
M  V30 5547 S 534.751 4.23035 1.16563 0
M  V30 5548 H 531.569 0.706395 0.0807862 0
M  V30 5549 H 534.171 1.89844 -0.466856 0
M  V30 5550 H 532.875 4.09242 -0.308046 0
M  V30 5551 H 532.406 3.69432 1.35217 0
M  V30 5552 H 534.421 4.31382 2.45203 0
M  V30 5553 N 533.594 0.0601682 1.57485 0
M  V30 5554 C 534.526 -0.94047 2.09016 0
M  V30 5555 C 535.539 -1.26897 1.01985 0
M  V30 5556 O 536.728 -1.22819 1.29529 0
M  V30 5557 C 533.828 -2.25955 2.52582 0
M  V30 5558 C 533.001 -2.11163 3.83052 0
M  V30 5559 C 532.06 -3.26273 4.12835 0
M  V30 5560 O 531.086 -3.01779 4.82616 0
M  V30 5561 N 532.288 -4.51022 3.65458 0
M  V30 5562 H 535.053 -0.500578 2.9549 0
M  V30 5563 H 532.614 -0.125852 1.6141 0
M  V30 5564 H 534.606 -3.01846 2.69575 0
M  V30 5565 H 533.176 -2.61481 1.71308 0
M  V30 5566 H 532.396 -1.19808 3.75552 0
M  V30 5567 H 533.684 -1.98517 4.68475 0
M  V30 5568 H 533.082 -4.73811 3.09062 0
M  V30 5569 H 531.639 -5.23978 3.87673 0
M  V30 5570 N 535.072 -1.5615 -0.213296 0
M  V30 5571 C 536.32 -1.79191 -0.934612 0
M  V30 5572 C 536.641 -0.630112 -1.84539 0
M  V30 5573 O 535.911 0.35257 -1.92701 0
M  V30 5574 H 534.491 -0.660937 -0.348097 0
M  V30 5575 H 537.153 -1.93618 -0.22317 0
M  V30 5576 H 536.249 -2.71656 -1.53654 0
M  V30 5577 N 536.55 0.480323 -1.50102 0
M  V30 5578 C 537.827 1.24159 -1.51142 0
M  V30 5579 C 538.207 2.09605 -0.250818 0
M  V30 5580 O 537.555 2.15274 0.766118 0
M  V30 5581 C 537.765 2.08057 -2.80202 0
M  V30 5582 C 539.113 2.66556 -3.30504 0
M  V30 5583 O 540.137 2.18308 -2.81461 0
M  V30 5584 O 538.996 3.54442 -4.15973 0
M  V30 5585 H 536.09 0.562928 -0.605839 0
M  V30 5586 H 538.636 0.492899 -1.62384 0
M  V30 5587 H 537.408 1.45032 -3.6343 0
M  V30 5588 H 537.031 2.90079 -2.71919 0
M  V30 5589 N 538.028 1.39524 0.732853 0
M  V30 5590 C 539.253 1.40329 1.52717 0
M  V30 5591 C 539.678 0.000286574 1.881 0
M  V30 5592 O 539.036 -0.987262 1.52062 0
M  V30 5593 C 539.084 2.28464 2.78992 0
M  V30 5594 O 538.188 1.716 3.75003 0
M  V30 5595 H 537.529 0.47778 0.461109 0
M  V30 5596 H 540.059 1.83546 0.903996 0
M  V30 5597 H 540.069 2.43051 3.27705 0
M  V30 5598 H 538.744 3.30425 2.52572 0
M  V30 5599 H 537.321 1.66267 3.33781 0
M  V30 5600 N 539.506 -0.963266 1.24736 0
M  V30 5601 C 540.754 -1.70343 1.08755 0
M  V30 5602 C 541.075 -1.91387 -0.373619 0
M  V30 5603 O 540.345 -1.4948 -1.2662 0
M  V30 5604 H 538.925 -0.631224 0.399456 0
M  V30 5605 H 541.587 -1.15859 1.56725 0
M  V30 5606 H 540.683 -2.68616 1.58909 0
M  V30 5607 N 540.985 -1.06182 -1.16461 0
M  V30 5608 C 542.233 -0.776326 -1.86595 0
M  V30 5609 C 542.554 0.69921 -1.82033 0
M  V30 5610 O 541.824 1.50579 -1.2531 0
M  V30 5611 H 540.404 -0.284184 -0.690832 0
M  V30 5612 H 543.066 -1.34308 -1.41235 0
M  V30 5613 H 542.162 -1.10022 -2.92064 0
M  V30 5614 N 542.463 1.3308 -0.844243 0
M  V30 5615 C 543.874 1.7992 -0.498566 0
M  V30 5616 C 544.225 1.69808 0.982834 0
M  V30 5617 O 543.35 1.25051 1.7661 0
M  V30 5618 C 543.945 3.26677 -0.898204 0
M  V30 5619 C 542.504 3.71513 -0.604583 0
M  V30 5620 C 541.651 2.54393 -1.10362 0
M  V30 5621 H 544.602 1.20526 -1.03244 0
M  V30 5622 H 544.623 3.79918 -0.21039 0
M  V30 5623 H 544.135 3.34004 -1.97643 0
M  V30 5624 H 542.236 3.69708 0.46335 0
M  V30 5625 H 542.349 4.64755 -1.16358 0
M  V30 5626 H 540.713 2.49246 -0.524273 0
M  V30 5627 H 541.496 2.6448 -2.18873 0
M  V30 5628 N 543.941 0.601185 1.45683 0
M  V30 5629 C 544.891 -0.142686 2.27553 0
M  V30 5630 C 545.875 -0.844598 1.3695 0
M  V30 5631 O 547.067 -0.735644 1.60988 0
M  V30 5632 C 544.196 -1.14364 3.23691 0
M  V30 5633 C 543.282 -0.442894 4.21781 0
M  V30 5634 N 543.673 0.51189 5.03203 0
M  V30 5635 C 541.971 -0.691277 4.4061 0
M  V30 5636 C 542.672 0.92318 5.74328 0
M  V30 5637 N 541.648 0.268308 5.42937 0
M  V30 5638 H 545.45 0.590736 2.87902 0
M  V30 5639 H 542.964 0.424365 1.56757 0
M  V30 5640 H 544.961 -1.6909 3.8107 0
M  V30 5641 H 543.621 -1.87768 2.64902 0
M  V30 5642 H 544.632 0.888329 5.10225 0
M  V30 5643 H 541.309 -1.41049 3.92952 0
M  V30 5644 H 542.699 1.71029 6.49768 0
M  V30 5645 N 545.419 -1.53889 0.339982 0
M  V30 5646 C 546.665 -2.01152 -0.258003 0
M  V30 5647 C 546.998 -1.22749 -1.50487 0
M  V30 5648 O 546.273 -0.314156 -1.91946 0
M  V30 5649 C 546.556 -3.55468 -0.575717 0
M  V30 5650 C 546.409 -4.44584 0.682996 0
M  V30 5651 C 547.728 -4.1768 -1.38677 0
M  V30 5652 H 544.847 -0.731198 -0.0922992 0
M  V30 5653 H 547.489 -1.84352 0.459814 0
M  V30 5654 H 545.639 -3.69914 -1.18725 0
M  V30 5655 H 547.311 -4.41981 1.32102 0
M  V30 5656 H 545.554 -4.13592 1.3086 0
M  V30 5657 H 546.225 -5.5043 0.416001 0
M  V30 5658 H 548.701 -4.0691 -0.869705 0
M  V30 5659 H 547.577 -5.25734 -1.57783 0
M  V30 5660 H 547.838 -3.72069 -2.38782 0
M  V30 5661 N 546.897 -0.0685191 -1.57451 0
M  V30 5662 C 548.125 0.610462 -1.97689 0
M  V30 5663 C 548.54 1.63346 -0.946758 0
M  V30 5664 O 547.897 1.82377 0.0669868 0
M  V30 5665 C 547.948 1.28196 -3.38006 0
M  V30 5666 O 547.669 0.299906 -4.37072 0
M  V30 5667 C 549.17 2.04907 -3.931 0
M  V30 5668 H 546.39 0.165689 -0.650222 0
M  V30 5669 H 548.934 -0.139953 -2.04021 0
M  V30 5670 H 547.089 1.98348 -3.32771 0
M  V30 5671 H 547.503 0.78126 -5.18649 0
M  V30 5672 H 548.977 2.47287 -4.93511 0
M  V30 5673 H 549.454 2.9043 -3.29465 0
M  V30 5674 H 550.06 1.39629 -4.01726 0
M  V30 5675 N 548.375 1.56261 0.205012 0
M  V30 5676 C 549.285 1.96944 1.27476 0
M  V30 5677 C 550.301 0.875636 1.50362 0
M  V30 5678 O 551.477 1.18058 1.6317 0
M  V30 5679 C 548.542 2.29219 2.60115 0
M  V30 5680 C 547.603 3.52255 2.45387 0
M  V30 5681 C 546.836 3.8298 3.71701 0
M  V30 5682 O 547.059 3.15138 4.75441 0
M  V30 5683 O 545.993 4.76435 3.67823 0
M  V30 5684 H 549.819 2.88144 0.959527 0
M  V30 5685 H 547.404 1.43686 0.409217 0
M  V30 5686 H 549.286 2.51098 3.3842 0
M  V30 5687 H 547.961 1.4119 2.91285 0
M  V30 5688 H 546.868 3.35635 1.65227 0
M  V30 5689 H 548.201 4.40719 2.19152 0
M  V30 5690 N 549.853 -0.472356 1.50355 0
M  V30 5691 C 551.099 -1.22634 1.6152 0
M  V30 5692 C 551.432 -1.91645 0.313995 0
M  V30 5693 O 550.707 -1.82059 -0.684446 0
M  V30 5694 C 550.99 -2.27099 2.7946 0
M  V30 5695 C 550.843 -1.62402 4.19459 0
M  V30 5696 C 552.162 -3.28421 2.92964 0
M  V30 5697 H 549.281 -0.444494 0.587873 0
M  V30 5698 H 551.923 -0.520321 1.82737 0
M  V30 5699 H 550.073 -2.87314 2.61501 0
M  V30 5700 H 551.745 -1.05793 4.49005 0
M  V30 5701 H 549.988 -0.927184 4.23776 0
M  V30 5702 H 550.659 -2.38309 4.97909 0
M  V30 5703 H 553.135 -2.78227 3.09401 0
M  V30 5704 H 552.011 -3.98845 3.77113 0
M  V30 5705 H 552.272 -3.92467 2.03525 0
M  V30 5706 N 551.331 -1.39911 -0.725443 0
M  V30 5707 C 552.241 -1.41688 -1.8698 0
M  V30 5708 C 553.257 -0.310579 -1.71206 0
M  V30 5709 O 554.433 -0.55359 -1.93642 0
M  V30 5710 C 551.498 -1.26811 -3.22676 0
M  V30 5711 C 550.559 -2.47497 -3.50776 0
M  V30 5712 C 549.792 -2.3332 -4.79997 0
M  V30 5713 O 550.015 -1.34175 -5.54394 0
M  V30 5714 O 548.949 -3.22498 -5.08211 0
M  V30 5715 H 552.775 -2.38171 -1.88436 0
M  V30 5716 H 550.36 -1.21128 -0.874548 0
M  V30 5717 H 552.242 -1.20684 -4.03749 0
M  V30 5718 H 550.917 -0.334289 -3.21969 0
M  V30 5719 H 549.824 -2.59201 -2.69751 0
M  V30 5720 H 551.157 -3.39606 -3.5627 0
M  V30 5721 N 552.809 0.956637 -1.25245 0
M  V30 5722 C 554.057 1.69764 -1.09657 0
M  V30 5723 C 554.378 1.91583 0.363464 0
M  V30 5724 O 553.648 1.50149 1.25825 0
M  V30 5725 H 552.228 0.629097 -0.402798 0
M  V30 5726 H 554.89 1.15026 -1.57337 0
M  V30 5727 H 553.986 2.67769 -1.60331 0
M  V30 5728 N 554.287 1.06798 1.15896 0
M  V30 5729 C 555.515 0.808694 1.90441 0
M  V30 5730 C 555.93 -0.637506 1.77711 0
M  V30 5731 O 555.287 -1.43684 1.12522 0
M  V30 5732 C 555.338 1.20068 3.40978 0
M  V30 5733 O 555.059 2.59013 3.53333 0
M  V30 5734 C 556.56 0.96987 4.3256 0
M  V30 5735 H 553.78 0.292809 0.603742 0
M  V30 5736 H 556.324 1.42296 1.46874 0
M  V30 5737 H 554.479 0.630842 3.82229 0
M  V30 5738 H 554.893 2.7485 4.46719 0
M  V30 5739 H 556.367 1.29371 5.36626 0
M  V30 5740 H 556.844 -0.0941209 4.39099 0
M  V30 5741 H 557.45 1.52433 3.97044 0
M  V30 5742 N 555.766 -1.3263 0.851289 0
M  V30 5743 C 556.991 -2.02097 0.466006 0
M  V30 5744 C 557.416 -1.63574 -0.928709 0
M  V30 5745 O 556.774 -0.834665 -1.60944 0
M  V30 5746 C 556.822 -3.55425 0.608737 0
M  V30 5747 O 555.926 -4.10827 -0.359878 0
M  V30 5748 H 555.267 -0.636911 0.187724 0
M  V30 5749 H 557.797 -1.69253 1.14955 0
M  V30 5750 H 557.807 -4.04986 0.495006 0
M  V30 5751 H 556.482 -3.82806 1.62581 0
M  V30 5752 H 555.059 -3.72349 -0.202666 0
M  V30 5753 N 557.244 -0.608902 -1.45362 0
M  V30 5754 C 558.491 -0.104607 -2.0223 0
M  V30 5755 C 558.819 1.26534 -1.47714 0
M  V30 5756 O 558.074 1.84855 -0.642435 0
M  V30 5757 C 558.373 -0.0167296 -3.57396 0
M  V30 5758 C 558.039 -1.32251 -4.31069 0
M  V30 5759 C 556.701 -1.68019 -4.50914 0
M  V30 5760 C 559.053 -2.18542 -4.73169 0
M  V30 5761 C 556.381 -2.89828 -5.10114 0
M  V30 5762 C 558.733 -3.39602 -5.33717 0
M  V30 5763 C 557.397 -3.7562 -5.51784 0
M  V30 5764 H 556.667 -0.0382785 -0.740011 0
M  V30 5765 H 559.314 -0.790782 -1.7441 0
M  V30 5766 H 557.619 0.752715 -3.84502 0
M  V30 5767 H 559.316 0.389634 -3.99103 0
M  V30 5768 H 555.906 -1.03411 -4.15938 0
M  V30 5769 H 560.09 -1.92208 -4.5757 0
M  V30 5770 H 555.346 -3.17839 -5.22291 0
M  V30 5771 H 559.52 -4.06716 -5.65292 0
M  V30 5772 H 557.147 -4.70093 -5.97425 0
M  V30 5773 N 558.722 1.53707 -0.348139 0
M  V30 5774 C 559.652 2.28111 0.498766 0
M  V30 5775 C 560.633 1.29851 1.09876 0
M  V30 5776 O 561.818 1.587 1.11928 0
M  V30 5777 C 558.948 3.05735 1.64753 0
M  V30 5778 C 557.902 4.11537 1.17565 0
M  V30 5779 C 557.228 4.77142 2.4133 0
M  V30 5780 C 558.528 5.21587 0.272844 0
M  V30 5781 H 560.222 2.99152 -0.121934 0
M  V30 5782 H 557.768 1.43875 -0.0600842 0
M  V30 5783 H 559.721 3.56526 2.24649 0
M  V30 5784 H 558.445 2.32354 2.2952 0
M  V30 5785 H 557.104 3.61665 0.599483 0
M  V30 5786 H 556.752 4.0035 3.04514 0
M  V30 5787 H 556.452 5.48626 2.10436 0
M  V30 5788 H 557.976 5.30719 3.01943 0
M  V30 5789 H 559.39 5.67986 0.778779 0
M  V30 5790 H 557.787 6.00074 0.0555849 0
M  V30 5791 H 558.857 4.79969 -0.689785 0
M  V30 5792 N 560.2 0.0768682 1.57412 0
M  V30 5793 C 561.428 -0.59997 1.9801 0
M  V30 5794 C 561.843 -1.62842 0.955408 0
M  V30 5795 O 561.2 -1.8241 -0.057314 0
M  V30 5796 C 561.251 -1.26401 3.38681 0
M  V30 5797 O 560.972 -0.276723 4.37225 0
M  V30 5798 C 562.473 -2.0282 3.94182 0
M  V30 5799 H 559.693 -0.162239 0.651091 0
M  V30 5800 H 562.237 0.150771 2.03943 0
M  V30 5801 H 560.392 -1.96581 3.33819 0
M  V30 5802 H 560.806 -0.753744 5.19056 0
M  V30 5803 H 562.28 -2.44667 4.94815 0
M  V30 5804 H 562.757 -2.88678 3.31001 0
M  V30 5805 H 563.363 -1.37496 4.02461 0
M  V30 5806 N 561.678 -1.56367 -0.196722 0
M  V30 5807 C 562.926 -1.80172 -0.915554 0
M  V30 5808 C 563.247 -0.649649 -1.8386 0
M  V30 5809 O 562.517 0.332111 -1.93064 0
M  V30 5810 H 561.097 -0.664592 -0.341067 0
M  V30 5811 H 563.759 -1.93844 -0.202622 0
M  V30 5812 H 562.855 -2.7327 -1.50764 0
M  V30 5813 N 563.156 0.464375 -1.50603 0
M  V30 5814 C 564.405 1.21277 -1.61167 0
M  V30 5815 C 564.718 1.92953 -0.320704 0
M  V30 5816 O 565.924 2.69778 -0.30534 0
M  V30 5817 C 564.38 2.20403 -2.84518 0
M  V30 5818 C 563.988 1.54499 -4.20516 0
M  V30 5819 C 565.732 2.95843 -3.0443 0
M  V30 5820 C 563.639 2.51951 -5.35047 0
M  V30 5821 H 562.569 0.456367 -0.600204 0
M  V30 5822 H 565.22 0.48254 -1.77042 0
M  V30 5823 H 563.602 2.96746 -2.62217 0
M  V30 5824 H 564.776 0.83899 -4.53098 0
M  V30 5825 H 563.091 0.913152 -4.06264 0
M  V30 5826 H 565.688 3.6879 -3.87167 0
M  V30 5827 H 566.031 3.55622 -2.16423 0
M  V30 5828 H 566.564 2.26611 -3.26944 0
M  V30 5829 H 563.303 1.96901 -6.25228 0
M  V30 5830 H 562.823 3.20683 -5.06875 0
M  V30 5831 H 564.502 3.13643 -5.65895 0
M  V30 5832 N 564.634 1.40294 0.718013 0
M  V30 5833 C 565.883 1.37746 1.4734 0
M  V30 5834 C 566.196 -0.0180754 1.95592 0
M  V30 5835 O 567.402 -0.166166 2.70991 0
M  V30 5836 C 565.858 2.4208 2.66318 0
M  V30 5837 C 565.466 3.87432 2.24945 0
M  V30 5838 C 567.21 2.48635 3.44065 0
M  V30 5839 C 565.117 4.83368 3.40748 0
M  V30 5840 H 564.047 0.512165 0.553356 0
M  V30 5841 H 566.698 1.66019 0.781661 0
M  V30 5842 H 565.08 2.06903 3.3765 0
M  V30 5843 H 566.254 4.3174 1.6105 0
M  V30 5844 H 564.569 3.8433 1.60249 0
M  V30 5845 H 567.166 3.17499 4.30231 0
M  V30 5846 H 567.509 1.51611 3.87711 0
M  V30 5847 H 568.042 2.82791 2.79775 0
M  V30 5848 H 564.781 5.81716 3.02136 0
M  V30 5849 H 564.301 4.43726 4.03568 0
M  V30 5850 H 565.98 5.03074 4.06848 0
M  V30 5851 N 566.112 -0.949982 1.2575 0
M  V30 5852 C 567.337 -1.73503 1.13628 0
M  V30 5853 C 567.762 -1.85601 -0.30559 0
M  V30 5854 O 567.12 -1.33984 -1.22139 0
M  V30 5855 C 567.168 -3.1243 1.80055 0
M  V30 5856 O 566.272 -3.97916 1.08336 0
M  V30 5857 H 565.613 -0.532665 0.396439 0
M  V30 5858 H 568.143 -1.19043 1.66403 0
M  V30 5859 H 568.153 -3.62866 1.86527 0
M  V30 5860 H 566.828 -3.02941 2.84956 0
M  V30 5861 H 565.405 -3.56375 1.09777 0
M  V30 5862 N 567.59 -1.07411 -1.15328 0
M  V30 5863 C 568.836 -0.808666 -1.86634 0
M  V30 5864 C 569.191 0.65816 -1.80793 0
M  V30 5865 O 568.484 1.47689 -1.22059 0
M  V30 5866 C 568.678 -1.25191 -3.34757 0
M  V30 5867 C 568.507 -2.76028 -3.55019 0
M  V30 5868 C 567.277 -3.43644 -3.70455 0
M  V30 5869 C 569.475 -3.74224 -3.5279 0
M  V30 5870 N 567.457 -4.83117 -3.78776 0
M  V30 5871 C 568.828 -4.9954 -3.67233 0
M  V30 5872 C 570.883 -3.67373 -3.36068 0
M  V30 5873 C 569.586 -6.18819 -3.66682 0
M  V30 5874 C 571.612 -4.86116 -3.36816 0
M  V30 5875 C 570.974 -6.10266 -3.51789 0
M  V30 5876 H 567.073 -0.348478 -0.700062 0
M  V30 5877 H 569.657 -1.37049 -1.38295 0
M  V30 5878 H 567.828 -0.717775 -3.8171 0
M  V30 5879 H 569.56 -0.933936 -3.93776 0
M  V30 5880 H 566.315 -2.94051 -3.71256 0
M  V30 5881 H 566.739 -5.55705 -3.86679 0
M  V30 5882 H 571.381 -2.72334 -3.2341 0
M  V30 5883 H 569.099 -7.14179 -3.78118 0
M  V30 5884 H 572.685 -4.82492 -3.25103 0
M  V30 5885 H 571.565 -7.00609 -3.52301 0
M  V30 5886 N 569.068 1.32177 -0.85831 0
M  V30 5887 C 570.316 1.96735 -0.462568 0
M  V30 5888 C 570.637 1.6824 0.985911 0
M  V30 5889 O 569.907 0.991564 1.68952 0
M  V30 5890 H 568.487 0.727849 -0.168064 0
M  V30 5891 H 571.149 1.61195 -1.09554 0
M  V30 5892 H 570.245 3.06068 -0.610647 0
M  V30 5893 N 570.547 0.616602 1.45037 0
M  V30 5894 C 571.457 -0.0985401 2.34393 0
M  V30 5895 C 572.473 -0.850971 1.51771 0
M  V30 5896 O 573.649 -0.806521 1.84546 0
M  V30 5897 C 570.714 -1.07748 3.29532 0
M  V30 5898 C 569.775 -0.326022 4.2806 0
M  V30 5899 C 569.008 -1.25833 5.18654 0
M  V30 5900 O 569.231 -2.49652 5.12864 0
M  V30 5901 O 568.165 -0.750512 5.97203 0
M  V30 5902 H 571.991 0.636016 2.96966 0
M  V30 5903 H 569.576 0.376832 1.44569 0
M  V30 5904 H 571.458 -1.64107 3.88133 0
M  V30 5905 H 570.133 -1.79291 2.69512 0
M  V30 5906 H 569.04 0.280253 3.73049 0
M  V30 5907 H 570.373 0.349091 4.9096 0
M  V30 5908 N 572.025 -1.5352 0.356285 0
M  V30 5909 C 572.935 -2.29151 -0.502712 0
M  V30 5910 C 573.951 -1.34753 -1.1008 0
M  V30 5911 O 575.127 -1.67803 -1.11374 0
M  V30 5912 C 572.192 -3.05911 -1.63154 0
M  V30 5913 C 571.253 -4.15958 -1.06194 0
M  V30 5914 C 570.486 -4.8905 -2.13696 0
M  V30 5915 O 570.709 -4.61919 -3.34645 0
M  V30 5916 O 569.643 -5.75202 -1.77275 0
M  V30 5917 H 573.469 -3.03492 0.112466 0
M  V30 5918 H 571.054 -1.4891 0.120942 0
M  V30 5919 H 572.936 -3.53874 -2.28804 0
M  V30 5920 H 571.611 -2.34415 -2.23229 0
M  V30 5921 H 570.518 -3.7227 -0.369603 0
M  V30 5922 H 571.851 -4.89593 -0.505872 0
M  V30 5923 N 573.503 -0.0852151 -1.57369 0
M  V30 5924 C 574.743 0.584297 -1.95871 0
M  V30 5925 C 575.107 1.6596 -0.965473 0
M  V30 5926 O 576.308 2.38561 -1.23862 0
M  V30 5927 C 574.579 1.13411 -3.38929 0
M  V30 5928 S 576.138 1.81687 -3.99419 0
M  V30 5929 H 572.956 0.19095 -0.684879 0
M  V30 5930 H 575.558 -0.162267 -1.94825 0
M  V30 5931 H 574.262 0.339845 -4.0899 0
M  V30 5932 H 573.793 1.91672 -3.43548 0
M  V30 5933 H 575.808 3.10037 -3.87417 0
M  V30 5934 N 574.981 1.5647 0.188427 0
M  V30 5935 C 575.944 1.9421 1.21718 0
M  V30 5936 C 576.944 0.823901 1.38089 0
M  V30 5937 O 578.134 1.09122 1.35787 0
M  V30 5938 C 575.266 2.22197 2.58537 0
M  V30 5939 H 576.459 2.86252 0.894418 0
M  V30 5940 H 574.012 1.50263 0.430211 0
M  V30 5941 H 574.747 1.32814 2.95856 0
M  V30 5942 H 574.532 3.03688 2.48025 0
M  V30 5943 H 576.022 2.52376 3.3271 0
M  V30 5944 N 576.459 -0.456382 1.50847 0
M  V30 5945 C 577.392 -1.57177 1.65441 0
M  V30 5946 C 578.37 -1.54649 0.502224 0
M  V30 5947 O 579.554 -1.74057 0.723633 0
M  V30 5948 C 576.681 -2.95763 1.65052 0
M  V30 5949 C 575.727 -3.16389 2.86007 0
M  V30 5950 S 576.56 -2.94716 4.47105 0
M  V30 5951 C 577.716 -4.35617 4.49432 0
M  V30 5952 H 577.949 -1.44561 2.59787 0
M  V30 5953 H 575.482 -0.644758 1.40293 0
M  V30 5954 H 577.44 -3.75654 1.65512 0
M  V30 5955 H 576.101 -3.05756 0.719153 0
M  V30 5956 H 575.294 -4.17667 2.82081 0
M  V30 5957 H 574.896 -2.44293 2.8319 0
M  V30 5958 H 577.188 -5.28503 4.239 0
M  V30 5959 H 578.131 -4.44582 5.51137 0
M  V30 5960 H 578.539 -4.18382 3.78967 0
M  V30 5961 N 577.937 -1.40673 -0.710563 0
M  V30 5962 C 578.884 -1.41336 -1.82463 0
M  V30 5963 C 579.854 -0.269648 -1.63897 0
M  V30 5964 O 581.039 -0.468463 -1.8496 0
M  V30 5965 C 578.179 -1.28665 -3.20218 0
M  V30 5966 C 577.292 -2.52784 -3.5032 0
M  V30 5967 C 576.427 -2.32517 -4.77608 0
M  V30 5968 C 575.466 -3.52187 -5.0063 0
M  V30 5969 N 574.603 -3.31084 -6.19135 0
M  V30 5970 H 579.443 -2.36558 -1.8123 0
M  V30 5971 H 576.98 -1.17483 -0.885226 0
M  V30 5972 H 578.938 -1.19324 -3.99772 0
M  V30 5973 H 577.568 -0.370602 -3.20666 0
M  V30 5974 H 576.62 -2.72634 -2.65283 0
M  V30 5975 H 577.932 -3.41845 -3.63241 0
M  V30 5976 H 577.086 -2.20558 -5.65189 0
M  V30 5977 H 575.825 -1.40889 -4.66906 0
M  V30 5978 H 574.83 -3.64617 -4.11502 0
M  V30 5979 H 576.055 -4.44749 -5.13201 0
M  V30 5980 H 574.001 -2.42143 -6.09674 0
M  V30 5981 H 573.918 -4.13713 -6.32754 0
M  V30 5982 H 575.186 -3.22868 -7.0949 0
M  V30 5983 N 579.415 0.9433 -1.26252 0
M  V30 5984 C 580.663 1.68592 -1.11451 0
M  V30 5985 C 580.984 1.91957 0.343123 0
M  V30 5986 O 580.254 1.51475 1.24226 0
M  V30 5987 H 578.834 0.624789 -0.409448 0
M  V30 5988 H 581.496 1.13351 -1.58548 0
M  V30 5989 H 580.592 2.66054 -1.63162 0
M  V30 5990 N 580.893 1.08022 1.14757 0
M  V30 5991 C 581.84 0.706657 2.19716 0
M  V30 5992 C 582.81 -0.30525 1.63271 0
M  V30 5993 O 583.995 -0.19015 1.8985 0
M  V30 5994 C 581.135 0.117914 3.44898 0
M  V30 5995 C 580.248 1.18212 4.15512 0
M  V30 5996 C 579.383 0.557659 5.28265 0
M  V30 5997 C 578.422 1.60418 5.90705 0
M  V30 5998 N 577.559 1.0018 6.94916 0
M  V30 5999 H 582.399 1.60603 2.51019 0
M  V30 6000 H 579.936 0.802664 1.23271 0
M  V30 6001 H 581.894 -0.241112 4.16503 0
M  V30 6002 H 580.524 -0.744788 3.1409 0
M  V30 6003 H 579.576 1.65863 3.42335 0
M  V30 6004 H 580.888 1.97533 4.5802 0
M  V30 6005 H 580.042 0.146654 6.06523 0
M  V30 6006 H 578.781 -0.267249 4.86967 0
M  V30 6007 H 577.786 2.02489 5.11154 0
M  V30 6008 H 579.011 2.43149 6.34078 0
M  V30 6009 H 576.957 0.197917 6.55701 0
M  V30 6010 H 576.874 1.73216 7.35889 0
M  V30 6011 H 578.142 0.616523 7.77058 0
M  V30 6012 N 582.371 -1.3172 0.865308 0
M  V30 6013 C 583.601 -2.00765 0.487543 0
M  V30 6014 C 584.009 -1.65145 -0.92325 0
M  V30 6015 O 583.352 -0.874294 -1.61561 0
M  V30 6016 C 583.414 -3.55122 0.559369 0
M  V30 6017 C 583.078 -4.14202 1.93095 0
M  V30 6018 C 584.075 -4.3165 2.89784 0
M  V30 6019 C 581.76 -4.50036 2.23099 0
M  V30 6020 C 583.754 -4.84114 4.14623 0
M  V30 6021 C 581.441 -5.02203 3.48189 0
M  V30 6022 C 582.439 -5.19192 4.43767 0
M  V30 6023 O 582.127 -5.70241 5.6664 0
M  V30 6024 H 581.859 -0.649066 0.188915 0
M  V30 6025 H 584.413 -1.69032 1.16694 0
M  V30 6026 H 582.643 -3.86295 -0.176926 0
M  V30 6027 H 584.332 -4.05428 0.195694 0
M  V30 6028 H 585.098 -4.04288 2.6791 0
M  V30 6029 H 580.977 -4.36091 1.49485 0
M  V30 6030 H 584.521 -4.9729 4.89233 0
M  V30 6031 H 580.418 -5.28997 3.69908 0
M  V30 6032 H 581.186 -5.88617 5.68746 0
M  V30 6033 N 583.85 -0.624285 -1.44708 0
M  V30 6034 C 585.098 -0.125802 -2.01708 0
M  V30 6035 C 585.418 1.2543 -1.49306 0
M  V30 6036 O 584.689 1.83198 -0.693924 0
M  V30 6037 H 583.269 -0.0435161 -0.745731 0
M  V30 6038 H 585.931 -0.809446 -1.77296 0
M  V30 6039 H 585.027 -0.0882734 -3.11975 0
M  V30 6040 N 585.328 1.53329 -0.364422 0
M  V30 6041 C 586.577 2.00421 0.226747 0
M  V30 6042 C 586.89 1.25581 1.49963 0
M  V30 6043 O 588.096 1.63256 2.16933 0
M  V30 6044 C 586.552 3.57017 0.454618 0
M  V30 6045 C 586.16 4.40734 -0.803568 0
M  V30 6046 C 587.904 4.12468 1.00351 0
M  V30 6047 C 585.811 5.8888 -0.545345 0
M  V30 6048 H 584.741 0.748787 0.0885082 0
M  V30 6049 H 587.392 1.7703 -0.482983 0
M  V30 6050 H 585.774 3.76558 1.22558 0
M  V30 6051 H 586.948 4.32967 -1.57723 0
M  V30 6052 H 585.263 3.96381 -1.27559 0
M  V30 6053 H 587.86 5.20783 1.212 0
M  V30 6054 H 588.203 3.6699 1.9653 0
M  V30 6055 H 588.736 3.96721 0.29274 0
M  V30 6056 H 585.475 6.38633 -1.47743 0
M  V30 6057 H 584.995 5.99499 0.189842 0
M  V30 6058 H 586.674 6.46776 -0.170425 0
M  V30 6059 N 586.806 0.0935595 1.57322 0
M  V30 6060 C 588.036 -0.578095 1.98347 0
M  V30 6061 C 588.444 -1.62357 0.971441 0
M  V30 6062 O 587.787 -1.83639 -0.0473959 0
M  V30 6063 C 587.849 -1.28525 3.3574 0
M  V30 6064 C 587.513 -0.390714 4.55327 0
M  V30 6065 C 588.51 0.360522 5.18648 0
M  V30 6066 C 586.195 -0.309221 5.01347 0
M  V30 6067 C 588.189 1.18125 6.26359 0
M  V30 6068 C 585.876 0.515157 6.08925 0
M  V30 6069 C 586.874 1.25904 6.71295 0
M  V30 6070 O 586.562 2.06978 7.76798 0
M  V30 6071 H 586.294 -0.159767 0.656849 0
M  V30 6072 H 588.848 0.169058 2.04703 0
M  V30 6073 H 587.078 -2.07894 3.26063 0
M  V30 6074 H 588.767 -1.85128 3.61223 0
M  V30 6075 H 589.533 0.307285 4.84026 0
M  V30 6076 H 585.412 -0.877881 4.52564 0
M  V30 6077 H 588.956 1.76236 6.74971 0
M  V30 6078 H 584.853 0.56988 6.42979 0
M  V30 6079 H 585.621 1.99644 7.93779 0
M  V30 6080 N 588.284 -1.56567 -0.180126 0
M  V30 6081 C 589.512 -1.85618 -0.913972 0
M  V30 6082 C 589.927 -0.677892 -1.7621 0
M  V30 6083 O 589.284 0.353171 -1.7905 0
M  V30 6084 C 589.335 -3.13619 -1.79793 0
M  V30 6085 O 589.056 -4.26906 -0.98402 0
M  V30 6086 C 590.557 -3.55954 -2.64219 0
M  V30 6087 H 587.777 -0.616043 -0.265954 0
M  V30 6088 H 590.321 -2.03681 -0.182872 0
M  V30 6089 H 588.476 -2.97409 -2.48247 0
M  V30 6090 H 588.89 -4.9989 -1.58776 0
M  V30 6091 H 590.364 -4.48444 -3.21873 0
M  V30 6092 H 590.841 -2.79653 -3.38661 0
M  V30 6093 H 591.447 -3.74746 -2.01111 0
M  V30 6094 N 589.762 0.448376 -1.51087 0
M  V30 6095 C 590.709 1.54341 -1.71603 0
M  V30 6096 C 591.679 1.56463 -0.557536 0
M  V30 6097 O 592.864 1.73644 -0.79072 0
M  V30 6098 C 590.004 2.92148 -1.83695 0
M  V30 6099 C 589.117 2.99639 -3.11192 0
M  V30 6100 C 588.252 4.285 -3.13944 0
M  V30 6101 C 587.291 4.29819 -4.35801 0
M  V30 6102 N 586.428 5.50186 -4.36164 0
M  V30 6103 H 591.268 1.36151 -2.65079 0
M  V30 6104 H 588.805 0.661585 -1.31383 0
M  V30 6105 H 590.763 3.72093 -1.88687 0
M  V30 6106 H 589.393 3.0892 -0.936374 0
M  V30 6107 H 588.445 2.12425 -3.15562 0
M  V30 6108 H 589.757 2.96474 -4.01129 0
M  V30 6109 H 588.911 5.16811 -3.17791 0
M  V30 6110 H 587.65 4.34307 -2.21876 0
M  V30 6111 H 586.655 3.39902 -4.32142 0
M  V30 6112 H 587.88 4.25685 -5.29121 0
M  V30 6113 H 585.826 5.56735 -3.46961 0
M  V30 6114 H 585.743 5.48856 -5.19897 0
M  V30 6115 H 587.011 6.40559 -4.44189 0
M  V30 6116 N 591.24 1.41047 0.703093 0
M  V30 6117 C 592.486 1.40207 1.46526 0
M  V30 6118 C 592.819 0.00847763 1.94198 0
M  V30 6119 O 592.094 -0.962437 1.69019 0
M  V30 6120 C 592.377 2.40238 2.6825 0
M  V30 6121 C 592.23 3.88674 2.26391 0
M  V30 6122 C 593.549 2.37627 3.70434 0
M  V30 6123 H 590.668 0.510594 0.531472 0
M  V30 6124 H 593.31 1.72271 0.801422 0
M  V30 6125 H 591.46 2.13026 3.24888 0
M  V30 6126 H 593.132 4.2676 1.75138 0
M  V30 6127 H 591.375 4.03903 1.58255 0
M  V30 6128 H 592.046 4.542 3.13698 0
M  V30 6129 H 594.522 2.61759 3.23452 0
M  V30 6130 H 593.398 3.09645 4.53223 0
M  V30 6131 H 593.659 1.39223 4.19606 0
M  V30 6132 N 592.718 -0.936591 1.26751 0
M  V30 6133 C 593.943 -1.72288 1.15462 0
M  V30 6134 C 594.368 -1.85915 -0.285887 0
M  V30 6135 O 593.726 -1.35272 -1.20711 0
M  V30 6136 C 593.774 -3.10503 1.83359 0
M  V30 6137 O 592.878 -3.96745 1.1255 0
M  V30 6138 H 592.219 -0.52843 0.402067 0
M  V30 6139 H 594.749 -1.17271 1.67656 0
M  V30 6140 H 594.759 -3.60867 1.90365 0
M  V30 6141 H 593.434 -2.99901 2.88153 0
M  V30 6142 H 592.011 -3.55191 1.13551 0
M  V30 6143 N 594.196 -1.08629 -1.14182 0
M  V30 6144 C 595.612 -0.814363 -1.3726 0
M  V30 6145 C 595.812 0.575271 -1.93114 0
M  V30 6146 O 594.868 1.33165 -2.1453 0
M  V30 6147 C 596.181 -1.8989 -2.33157 0
M  V30 6148 C 597.729 -1.92518 -2.46791 0
M  V30 6149 C 598.204 -3.00092 -3.45989 0
M  V30 6150 N 599.695 -2.99279 -3.53534 0
M  V30 6151 C 600.43 -3.79158 -4.30147 0
M  V30 6152 N 599.926 -4.68923 -5.09983 0
M  V30 6153 N 601.719 -3.67451 -4.25366 0
M  V30 6154 H 593.87 -1.98232 -0.762758 0
M  V30 6155 H 596.133 -0.860383 -0.398051 0
M  V30 6156 H 595.839 -2.89809 -1.99257 0
M  V30 6157 H 595.713 -1.77013 -3.33086 0
M  V30 6158 H 598.1 -0.932425 -2.79982 0
M  V30 6159 H 598.181 -2.09473 -1.46816 0
M  V30 6160 H 597.825 -3.99575 -3.13532 0
M  V30 6161 H 597.755 -2.80382 -4.45751 0
M  V30 6162 H 600.246 -2.3422 -2.96563 0
M  V30 6163 H 600.559 -5.26475 -5.65724 0
M  V30 6164 H 598.904 -4.72964 -5.09244 0
M  V30 6165 H 602.095 -2.9669 -3.62067 0
M  V30 6166 H 602.268 -4.29944 -4.84822 0
M  V30 6167 N 595.674 1.31259 -0.872281 0
M  V30 6168 C 596.904 2.00504 -0.498183 0
M  V30 6169 C 597.312 1.65632 0.914479 0
M  V30 6170 O 596.655 0.882849 1.61095 0
M  V30 6171 C 596.717 3.5482 -0.578194 0
M  V30 6172 C 596.381 4.13172 -1.95289 0
M  V30 6173 C 597.378 4.30107 -2.92069 0
M  V30 6174 C 595.063 4.48846 -2.25483 0
M  V30 6175 C 597.057 4.81908 -4.17185 0
M  V30 6176 C 594.744 5.00349 -3.50847 0
M  V30 6177 C 595.742 5.16831 -4.46514 0
M  V30 6178 O 595.43 5.67228 -5.69656 0
M  V30 6179 H 595.162 0.648055 -0.192354 0
M  V30 6180 H 597.716 1.6841 -1.17589 0
M  V30 6181 H 595.946 3.86383 0.156438 0
M  V30 6182 H 597.635 4.05318 -0.217192 0
M  V30 6183 H 598.401 4.02862 -2.7005 0
M  V30 6184 H 594.28 4.35292 -1.51795 0
M  V30 6185 H 597.824 4.94688 -4.91863 0
M  V30 6186 H 593.721 5.27028 -3.72708 0
M  V30 6187 H 594.489 5.85592 -5.7186 0
M  V30 6188 N 597.152 0.631951 1.44375 0
M  V30 6189 C 598.398 0.13697 2.02337 0
M  V30 6190 C 598.731 -1.23826 1.49602 0
M  V30 6191 O 598.006 -1.8221 0.680415 0
M  V30 6192 C 598.289 0.124536 3.59885 0
M  V30 6193 C 598.142 1.53217 4.229 0
M  V30 6194 C 599.461 -0.550481 4.36644 0
M  V30 6195 H 596.58 0.051247 0.735216 0
M  V30 6196 H 599.222 0.808581 1.71936 0
M  V30 6197 H 597.372 -0.44737 3.85916 0
M  V30 6198 H 599.044 2.15303 4.07973 0
M  V30 6199 H 597.287 2.0858 3.80364 0
M  V30 6200 H 597.958 1.4755 5.31914 0
M  V30 6201 H 600.434 -0.0641154 4.16051 0
M  V30 6202 H 599.31 -0.528371 5.46351 0
M  V30 6203 H 599.571 -1.62097 4.11311 0
M  V30 6204 N 598.631 -1.53133 0.372548 0
M  V30 6205 C 599.579 -2.27473 -0.485681 0
M  V30 6206 C 600.573 -1.30719 -1.07745 0
M  V30 6207 O 601.779 -1.48321 -1.01985 0
M  V30 6208 H 598.154 -0.731269 -0.175356 0
M  V30 6209 H 600.125 -2.97955 0.162986 0
M  V30 6210 C 598.874 -3.08191 -1.60978 0
M  V30 6211 H 598.197 -3.82488 -1.16373 0
M  V30 6212 H 599.637 -3.63373 -2.18485 0
M  V30 6213 C 598.096 -2.19461 -2.55614 0
M  V30 6214 O 598.626 -1.81008 -3.58607 0
M  V30 6215 N 596.832 -1.83955 -2.24965 0
M  V30 6216 H 596.379 -2.15423 -1.41247 0
M  V30 6217 H 596.337 -1.24874 -2.88538 0
M  V30 6218 N 600.109 -0.101901 -1.5727 0
M  V30 6219 C 601.355 0.554864 -1.95686 0
M  V30 6220 C 601.71 1.65368 -0.983415 0
M  V30 6221 O 601.003 1.91597 -0.0105374 0
M  V30 6222 C 601.197 1.14898 -3.38427 0
M  V30 6223 C 601.026 0.109251 -4.49567 0
M  V30 6224 C 599.796 -0.316633 -5.04307 0
M  V30 6225 C 601.994 -0.665196 -5.0998 0
M  V30 6226 N 599.976 -1.34393 -5.99009 0
M  V30 6227 C 601.347 -1.54413 -6.00464 0
M  V30 6228 C 603.402 -0.717966 -4.92696 0
M  V30 6229 C 602.105 -2.47122 -6.75517 0
M  V30 6230 C 604.131 -1.63268 -5.68417 0
M  V30 6231 C 603.493 -2.49923 -6.58572 0
M  V30 6232 H 599.592 0.17317 -0.762585 0
M  V30 6233 H 602.176 -0.18605 -1.93809 0
M  V30 6234 H 600.347 1.85969 -3.40984 0
M  V30 6235 H 602.079 1.76867 -3.64006 0
M  V30 6236 H 598.834 0.0724419 -4.73545 0
M  V30 6237 H 599.258 -1.85598 -6.51062 0
M  V30 6238 H 603.9 -0.0621637 -4.22754 0
M  V30 6239 H 601.618 -3.13724 -7.44717 0
M  V30 6240 H 605.204 -1.67874 -5.57054 0
M  V30 6241 H 604.084 -3.19553 -7.16139 0
M  V30 6242 N 601.587 1.56661 0.17182 0
M  V30 6243 C 602.836 1.81158 0.886831 0
M  V30 6244 C 603.149 0.679072 1.83434 0
M  V30 6245 O 604.355 0.808964 2.59168 0
M  V30 6246 C 602.811 3.20999 1.6275 0
M  V30 6247 C 602.419 4.42117 0.723652 0
M  V30 6248 C 604.163 3.5479 2.33076 0
M  V30 6249 C 602.07 5.7298 1.46452 0
M  V30 6250 H 601 0.675543 0.334899 0
M  V30 6251 H 603.651 1.82967 0.139765 0
M  V30 6252 H 602.033 3.13506 2.4193 0
M  V30 6253 H 603.207 4.60789 -0.0311485 0
M  V30 6254 H 601.522 4.16197 0.130063 0
M  V30 6255 H 604.119 4.49806 2.89099 0
M  V30 6256 H 604.462 2.79646 3.08389 0
M  V30 6257 H 604.995 3.63834 1.6084 0
M  V30 6258 H 601.734 6.51152 0.753729 0
M  V30 6259 H 601.254 5.58285 2.19266 0
M  V30 6260 H 602.933 6.14916 2.01214 0
M  V30 6261 N 603.065 -0.440357 1.51323 0
M  V30 6262 C 604.012 -1.53429 1.72419 0
M  V30 6263 C 604.982 -1.56165 0.565826 0
M  V30 6264 O 606.167 -1.73222 0.799917 0
M  V30 6265 C 603.307 -2.91169 1.85242 0
M  V30 6266 C 602.42 -2.97985 3.12777 0
M  V30 6267 C 601.555 -4.26829 3.16212 0
M  V30 6268 C 600.594 -4.27501 4.38074 0
M  V30 6269 N 599.731 -5.47866 4.39076 0
M  V30 6270 H 604.571 -1.34743 2.65797 0
M  V30 6271 H 602.108 -0.654608 1.31732 0
M  V30 6272 H 604.066 -3.71087 1.90658 0
M  V30 6273 H 602.696 -3.0842 0.952744 0
M  V30 6274 H 601.748 -2.10749 3.16685 0
M  V30 6275 H 603.06 -2.94342 4.02696 0
M  V30 6276 H 602.214 -5.15118 3.20527 0
M  V30 6277 H 600.953 -4.33124 2.24176 0
M  V30 6278 H 599.958 -3.37606 4.33938 0
M  V30 6279 H 601.183 -4.22873 5.31371 0
M  V30 6280 H 599.129 -5.54887 3.49909 0
M  V30 6281 H 599.046 -5.46091 5.22801 0
M  V30 6282 H 600.314 -6.38195 4.4758 0
M  V30 6283 N 604.543 -1.41418 -0.695603 0
M  V30 6284 C 605.453 -1.45622 -1.83933 0
M  V30 6285 C 606.469 -0.346825 -1.70508 0
M  V30 6286 O 607.645 -0.59454 -1.92424 0
M  V30 6287 C 604.71 -1.33627 -3.19914 0
M  V30 6288 C 603.771 -2.54882 -3.45447 0
M  V30 6289 C 603.004 -2.43449 -4.7494 0
M  V30 6290 O 603.227 -1.45905 -5.51424 0
M  V30 6291 O 602.161 -3.33206 -5.01256 0
M  V30 6292 H 605.987 -2.42114 -1.83342 0
M  V30 6293 H 603.572 -1.22956 -0.848658 0
M  V30 6294 H 605.454 -1.29221 -4.01098 0
M  V30 6295 H 604.129 -0.402508 -3.21188 0
M  V30 6296 H 603.036 -2.64865 -2.64192 0
M  V30 6297 H 604.369 -3.47087 -3.48987 0
M  V30 6298 N 606.021 0.929856 -1.27246 0
M  V30 6299 C 606.968 2.03017 -1.09785 0
M  V30 6300 C 607.938 1.661 0.000456744 0
M  V30 6301 O 609.123 1.90116 -0.161462 0
M  V30 6302 C 606.263 3.36878 -0.748816 0
M  V30 6303 C 605.376 3.86763 -1.92453 0
M  V30 6304 C 604.511 5.09061 -1.51758 0
M  V30 6305 C 603.55 5.51237 -2.66091 0
M  V30 6306 N 602.687 6.64732 -2.25999 0
M  V30 6307 H 607.527 2.17285 -2.03939 0
M  V30 6308 H 605.064 1.06448 -1.01524 0
M  V30 6309 H 607.022 4.13855 -0.527283 0
M  V30 6310 H 605.652 3.22424 0.155771 0
M  V30 6311 H 604.704 3.06086 -2.25867 0
M  V30 6312 H 606.016 4.13994 -2.78227 0
M  V30 6313 H 605.17 5.93532 -1.25716 0
M  V30 6314 H 603.909 4.83602 -0.630896 0
M  V30 6315 H 602.914 4.65316 -2.92849 0
M  V30 6316 H 604.139 5.78692 -3.55377 0
M  V30 6317 H 602.085 6.40935 -1.3978 0
M  V30 6318 H 602.002 6.91607 -3.05313 0
M  V30 6319 H 603.27 7.52549 -2.03199 0
M  V30 6320 N 607.499 1.09233 1.13605 0
M  V30 6321 C 608.727 0.848908 1.88683 0
M  V30 6322 C 609.142 -0.599667 1.79024 0
M  V30 6323 O 608.499 -1.41265 1.15544 0
M  V30 6324 C 608.55 1.27273 3.38355 0
M  V30 6325 O 608.271 2.66449 3.47759 0
M  V30 6326 C 609.772 1.0614 4.30406 0
M  V30 6327 H 606.992 0.305549 0.597395 0
M  V30 6328 H 609.536 1.4538 1.43823 0
M  V30 6329 H 607.691 0.711776 3.80805 0
M  V30 6330 H 608.105 2.84264 4.40788 0
M  V30 6331 H 609.579 1.40725 5.33761 0
M  V30 6332 H 610.056 -0.000960332 4.392 0
M  V30 6333 H 610.662 1.60821 3.93722 0
M  V30 6334 N 608.977 -1.30795 0.87923 0
M  V30 6335 C 609.924 -2.28282 0.339968 0
M  V30 6336 C 610.894 -1.56134 -0.566685 0
M  V30 6337 O 612.079 -1.84231 -0.496338 0
M  V30 6338 C 609.219 -3.42225 -0.444501 0
M  V30 6339 C 608.332 -4.29204 0.490717 0
M  V30 6340 C 607.467 -5.30302 -0.308784 0
M  V30 6341 C 606.506 -6.08929 0.622272 0
M  V30 6342 N 605.643 -7.01957 -0.14155 0
M  V30 6343 H 610.483 -2.73794 1.17647 0
M  V30 6344 H 608.02 -1.34682 0.591527 0
M  V30 6345 H 609.978 -4.07038 -0.915186 0
M  V30 6346 H 608.608 -2.97799 -1.24562 0
M  V30 6347 H 607.66 -3.6475 1.07988 0
M  V30 6348 H 608.972 -4.84045 1.20425 0
M  V30 6349 H 608.126 -6.00835 -0.841575 0
M  V30 6350 H 606.865 -4.7614 -1.05556 0
M  V30 6351 H 605.87 -5.37278 1.16674 0
M  V30 6352 H 607.095 -6.65178 1.36804 0
M  V30 6353 H 605.041 -6.50192 -0.870966 0
M  V30 6354 H 604.958 -7.54261 0.51246 0
M  V30 6355 H 606.226 -7.76741 -0.655271 0
M  V30 6356 N 610.455 -0.639598 -1.44038 0
M  V30 6357 C 611.385 0.0469443 -2.33453 0
M  V30 6358 C 612.366 0.82609 -1.48694 0
M  V30 6359 O 613.551 0.790285 -1.77393 0
M  V30 6360 C 610.681 1.02338 -3.3188 0
M  V30 6361 C 609.635 0.355284 -4.26523 0
M  V30 6362 C 608.961 1.44221 -5.14883 0
M  V30 6363 C 610.261 -0.743798 -5.16977 0
M  V30 6364 H 611.955 -0.699735 -2.91108 0
M  V30 6365 H 609.501 -0.337946 -1.39978 0
M  V30 6366 H 611.454 1.51247 -3.93322 0
M  V30 6367 H 610.178 1.80105 -2.72451 0
M  V30 6368 H 608.837 -0.113239 -3.66425 0
M  V30 6369 H 608.485 2.21097 -4.51802 0
M  V30 6370 H 608.185 1.00052 -5.79019 0
M  V30 6371 H 609.709 1.93295 -5.79197 0
M  V30 6372 H 611.123 -0.337444 -5.72306 0
M  V30 6373 H 609.52 -1.10914 -5.89761 0
M  V30 6374 H 610.59 -1.60745 -4.57481 0
M  V30 6375 N 611.933 1.52934 -0.380664 0
M  V30 6376 C 613.161 2.05886 0.204599 0
M  V30 6377 C 613.576 1.25305 1.41223 0
M  V30 6378 O 612.933 0.297504 1.80059 0
M  V30 6379 C 612.984 3.56764 0.583249 0
M  V30 6380 O 612.705 4.34292 -0.576398 0
M  V30 6381 C 614.206 4.2603 1.2253 0
M  V30 6382 H 611.426 0.670193 0.0328991 0
M  V30 6383 H 613.97 1.97148 -0.543397 0
M  V30 6384 H 612.125 3.65603 1.28115 0
M  V30 6385 H 612.539 5.23819 -0.267119 0
M  V30 6386 H 614.013 5.32868 1.44068 0
M  V30 6387 H 614.49 3.80698 2.19011 0
M  V30 6388 H 615.096 4.21485 0.568407 0
M  V30 6389 N 613.412 0.11024 1.57214 0
M  V30 6390 C 614.823 -0.416527 1.81994 0
M  V30 6391 C 615.174 -1.67183 1.02686 0
M  V30 6392 O 614.299 -2.14823 0.260782 0
M  V30 6393 C 614.894 -0.762466 3.30109 0
M  V30 6394 C 613.453 -1.23391 3.556 0
M  V30 6395 C 612.6 -0.238166 2.76275 0
M  V30 6396 H 615.551 0.335491 1.55113 0
M  V30 6397 H 615.572 -1.62068 3.44259 0
M  V30 6398 H 615.084 0.151346 3.87805 0
M  V30 6399 H 613.185 -2.16492 3.03253 0
M  V30 6400 H 613.298 -1.18528 4.64207 0
M  V30 6401 H 611.662 -0.723421 2.4421 0
M  V30 6402 H 612.445 0.668591 3.36727 0
M  V30 6403 N 614.89 -1.56749 -0.16351 0
M  V30 6404 C 616.136 -1.82704 -0.880168 0
M  V30 6405 C 616.469 -0.689311 -1.81555 0
M  V30 6406 O 615.744 0.308224 -1.92042 0
M  V30 6407 C 616.027 -3.19084 -1.66905 0
M  V30 6408 C 615.88 -4.43397 -0.756269 0
M  V30 6409 C 617.199 -3.52493 -2.63509 0
M  V30 6410 H 614.318 -0.664608 -0.318535 0
M  V30 6411 H 616.96 -1.89438 -0.146036 0
M  V30 6412 H 615.11 -3.13475 -2.2949 0
M  V30 6413 H 616.782 -4.61079 -0.14269 0
M  V30 6414 H 615.025 -4.33752 -0.0647944 0
M  V30 6415 H 615.696 -5.3539 -1.34393 0
M  V30 6416 H 618.172 -3.58606 -2.11047 0
M  V30 6417 H 617.048 -4.48979 -3.15767 0
M  V30 6418 H 617.309 -2.77597 -3.44082 0
M  V30 6419 N 616.368 0.432326 -1.51554 0
M  V30 6420 C 617.593 1.20824 -1.68571 0
M  V30 6421 C 618.018 1.84126 -0.384596 0
M  V30 6422 O 617.376 1.69025 0.655751 0
M  V30 6423 C 617.424 2.26429 -2.80646 0
M  V30 6424 O 616.528 3.32032 -2.44598 0
M  V30 6425 H 615.869 0.353765 -0.561913 0
M  V30 6426 H 618.399 0.509916 -1.98144 0
M  V30 6427 H 618.409 2.71133 -3.04878 0
M  V30 6428 H 617.084 1.79733 -3.75058 0
M  V30 6429 H 615.661 2.92769 -2.30956 0
M  V30 6430 N 617.846 1.41785 0.688094 0
M  V30 6431 C 618.778 1.40159 1.81351 0
M  V30 6432 C 619.791 0.30262 1.59963 0
M  V30 6433 O 620.98 0.564841 1.69327 0
M  V30 6434 C 618.08 1.16517 3.1824 0
M  V30 6435 C 617.253 2.38597 3.66593 0
M  V30 6436 C 616.312 2.10699 4.82174 0
M  V30 6437 O 615.338 2.83798 4.93404 0
M  V30 6438 N 616.54 1.10187 5.69947 0
M  V30 6439 H 619.305 2.3716 1.83236 0
M  V30 6440 H 616.866 1.36494 0.870697 0
M  V30 6441 H 618.858 0.957941 3.93199 0
M  V30 6442 H 617.428 0.280873 3.11336 0
M  V30 6443 H 616.648 2.74974 2.82459 0
M  V30 6444 H 617.936 3.19919 3.95638 0
M  V30 6445 H 617.334 0.497016 5.63512 0
M  V30 6446 H 615.891 0.954518 6.44773 0
M  V30 6447 N 619.324 -0.923095 1.27737 0
M  V30 6448 C 620.552 -1.70525 1.17171 0
M  V30 6449 C 620.967 -1.86847 -0.270881 0
M  V30 6450 O 620.324 -1.38879 -1.18401 0
M  V30 6451 C 620.375 -3.10242 1.85559 0
M  V30 6452 O 620.096 -2.94683 3.24182 0
M  V30 6453 C 621.597 -4.04586 1.81176 0
M  V30 6454 H 618.817 -0.533347 0.407163 0
M  V30 6455 H 621.361 -1.15599 1.68692 0
M  V30 6456 H 619.516 -3.62014 1.3793 0
M  V30 6457 H 619.93 -3.83045 3.58297 0
M  V30 6458 H 621.404 -5.00119 2.33633 0
M  V30 6459 H 621.881 -4.3218 0.782099 0
M  V30 6460 H 622.487 -3.58741 2.2844 0
M  V30 6461 N 620.802 -1.09834 -1.13024 0
M  V30 6462 C 622.027 -0.85909 -1.88771 0
M  V30 6463 C 622.452 0.584402 -1.78791 0
M  V30 6464 O 621.81 1.41101 -1.13842 0
M  V30 6465 C 621.858 -1.30427 -3.36186 0
M  V30 6466 O 620.962 -0.465368 -4.09766 0
M  V30 6467 H 620.303 -0.310786 -0.586778 0
M  V30 6468 H 622.833 -1.46355 -1.42973 0
M  V30 6469 H 622.843 -1.2915 -3.8702 0
M  V30 6470 H 621.518 -2.3555 -3.42767 0
M  V30 6471 H 620.095 -0.542814 -3.68928 0
M  V30 6472 N 622.28 1.30327 -0.886154 0
M  V30 6473 C 623.227 2.28099 -0.352069 0
M  V30 6474 C 624.197 1.56433 0.558397 0
M  V30 6475 O 625.382 1.84492 0.486561 0
M  V30 6476 C 622.522 3.42456 0.426346 0
M  V30 6477 C 621.635 4.28938 -0.513472 0
M  V30 6478 C 620.77 5.30458 0.280657 0
M  V30 6479 C 619.809 6.0859 -0.654556 0
M  V30 6480 N 618.946 7.02022 0.104322 0
M  V30 6481 H 623.786 2.73166 -1.19097 0
M  V30 6482 H 621.323 1.34367 -0.598662 0
M  V30 6483 H 623.281 4.07518 0.893587 0
M  V30 6484 H 621.911 2.98455 1.22981 0
M  V30 6485 H 620.963 3.64173 -1.09921 0
M  V30 6486 H 622.275 4.83399 -1.2299 0
M  V30 6487 H 621.429 6.01273 0.8097 0
M  V30 6488 H 620.168 4.76693 1.03029 0
M  V30 6489 H 619.173 5.36651 -1.19522 0
M  V30 6490 H 620.398 6.64443 -1.4033 0
M  V30 6491 H 618.344 6.50645 0.836472 0
M  V30 6492 H 618.261 7.53979 -0.552453 0
M  V30 6493 H 619.529 7.77077 0.614069 0
M  V30 6494 N 623.758 0.647228 1.43697 0
M  V30 6495 C 624.688 -0.0345631 2.33474 0
M  V30 6496 C 625.669 -0.818193 1.4913 0
M  V30 6497 O 626.854 -0.780867 1.77809 0
M  V30 6498 C 623.984 -1.00576 3.32418 0
M  V30 6499 C 622.938 -0.33266 4.26705 0
M  V30 6500 C 622.264 -1.41489 5.1564 0
M  V30 6501 C 623.564 0.771204 5.16575 0
M  V30 6502 H 625.258 0.715163 2.90733 0
M  V30 6503 H 622.804 0.345364 1.39797 0
M  V30 6504 H 624.757 -1.49159 3.94119 0
M  V30 6505 H 623.481 -1.78657 2.73403 0
M  V30 6506 H 622.14 0.13267 3.6636 0
M  V30 6507 H 621.788 -2.18698 4.52968 0
M  V30 6508 H 621.488 -0.969799 5.79542 0
M  V30 6509 H 623.012 -1.9022 5.80214 0
M  V30 6510 H 624.426 0.36779 5.72119 0
M  V30 6511 H 622.823 1.1404 5.89165 0
M  V30 6512 H 623.893 1.63169 4.56622 0
M  V30 6513 N 625.236 -1.5273 0.388769 0
M  V30 6514 C 626.464 -2.05992 -0.193677 0
M  V30 6515 C 626.879 -1.26053 -1.40557 0
M  V30 6516 O 626.236 -0.307049 -1.79898 0
M  V30 6517 C 626.287 -3.57068 -0.564321 0
M  V30 6518 O 626.008 -4.3398 0.599422 0
M  V30 6519 C 627.509 -4.26674 -1.20269 0
M  V30 6520 H 624.729 -0.670358 -0.0293445 0
M  V30 6521 H 627.273 -1.96857 0.553844 0
M  V30 6522 H 625.428 -3.66277 -1.26174 0
M  V30 6523 H 625.842 -5.2367 0.294895 0
M  V30 6524 H 627.316 -5.33625 -1.4124 0
M  V30 6525 H 627.793 -3.81854 -2.16989 0
M  V30 6526 H 628.399 -4.2178 -0.546047 0
M  V30 6527 N 626.714 -0.118576 -1.57153 0
M  V30 6528 C 628.13 0.238014 -1.57815 0
M  V30 6529 C 628.33 1.66747 -1.13127 0
M  V30 6530 O 627.386 2.38867 -0.818462 0
M  V30 6531 C 628.699 0.00508207 -3.007 0
M  V30 6532 C 630.247 0.0710139 -3.12919 0
M  V30 6533 C 630.722 -0.13422 -4.57803 0
M  V30 6534 N 632.213 -0.0801755 -4.63131 0
M  V30 6535 C 632.948 -0.213885 -5.73001 0
M  V30 6536 N 632.444 -0.403742 -6.91623 0
M  V30 6537 N 634.237 -0.15349 -5.6189 0
M  V30 6538 H 626.388 -1.05226 -1.84503 0
M  V30 6539 H 628.651 -0.414318 -0.852669 0
M  V30 6540 H 628.357 -0.983125 -3.3768 0
M  V30 6541 H 628.231 0.73714 -3.69927 0
M  V30 6542 H 630.618 1.04975 -2.75798 0
M  V30 6543 H 630.699 -0.692918 -2.46236 0
M  V30 6544 H 630.343 -1.10992 -4.95624 0
M  V30 6545 H 630.273 0.649692 -5.22577 0
M  V30 6546 H 632.764 0.0630689 -3.77847 0
M  V30 6547 H 633.077 -0.496645 -7.71202 0
M  V30 6548 H 631.422 -0.43971 -6.93608 0
M  V30 6549 H 634.613 -0.00613174 -4.681 0
M  V30 6550 H 634.786 -0.261138 -6.47474 0
M  V30 6551 N 628.193 1.56834 0.155195 0
M  V30 6552 C 629.156 1.96748 1.17571 0
M  V30 6553 C 630.156 0.853006 1.3631 0
M  V30 6554 O 631.346 1.11978 1.33441 0
M  V30 6555 C 628.478 2.27631 2.53765 0
M  V30 6556 H 629.671 2.88085 0.833498 0
M  V30 6557 H 627.224 1.51141 0.398242 0
M  V30 6558 H 627.959 1.39059 2.92973 0
M  V30 6559 H 627.744 3.0888 2.41527 0
M  V30 6560 H 629.234 2.59377 3.27282 0
M  V30 6561 N 629.671 -0.424282 1.51781 0
M  V30 6562 C 630.581 -1.54087 1.76902 0
M  V30 6563 C 631.597 -1.61249 0.653826 0
M  V30 6564 O 632.773 -1.78247 0.937552 0
M  V30 6565 C 629.838 -2.8996 1.90063 0
M  V30 6566 C 628.899 -2.92809 3.13945 0
M  V30 6567 C 628.132 -4.22201 3.26469 0
M  V30 6568 O 628.355 -5.15286 2.44616 0
M  V30 6569 O 627.289 -4.31599 4.1953 0
M  V30 6570 H 631.115 -1.358 2.71647 0
M  V30 6571 H 628.7 -0.608618 1.36441 0
M  V30 6572 H 630.582 -3.70575 2.0063 0
M  V30 6573 H 629.257 -3.08347 0.985067 0
M  V30 6574 H 628.164 -2.11102 3.08847 0
M  V30 6575 H 629.497 -2.79369 4.05233 0
M  V30 6576 N 631.149 -1.42148 -0.680565 0
M  V30 6577 C 632.377 -1.45696 -1.46902 0
M  V30 6578 C 632.792 -0.0665858 -1.88683 0
M  V30 6579 O 632.149 0.917436 -1.57764 0
M  V30 6580 C 632.2 -2.37898 -2.72188 0
M  V30 6581 O 631.921 -3.71526 -2.32163 0
M  V30 6582 C 633.422 -2.50407 -3.65802 0
M  V30 6583 H 630.642 -0.495729 -0.45221 0
M  V30 6584 H 633.186 -1.866 -0.836709 0
M  V30 6585 H 631.341 -2.00263 -3.31622 0
M  V30 6586 H 631.755 -4.20849 -3.13027 0
M  V30 6587 H 633.229 -3.19056 -4.50452 0
M  V30 6588 H 633.706 -1.5401 -4.11312 0
M  V30 6589 H 634.312 -2.8874 -3.12265 0
M  V30 6590 N 632.627 0.916307 -1.28225 0
M  V30 6591 C 633.873 1.66765 -1.154 0
M  V30 6592 C 634.206 1.91912 0.297251 0
M  V30 6593 O 633.481 1.51766 1.21644 0
M  V30 6594 C 633.764 3.02715 -1.95028 0
M  V30 6595 C 633.617 2.84738 -3.48201 0
M  V30 6596 C 634.936 4.03215 -1.76369 0
M  V30 6597 H 632.055 0.605205 -0.42059 0
M  V30 6598 H 634.697 1.06255 -1.57512 0
M  V30 6599 H 632.847 3.54365 -1.59242 0
M  V30 6600 H 634.519 2.40118 -3.9388 0
M  V30 6601 H 632.762 2.19848 -3.73964 0
M  V30 6602 H 633.433 3.8127 -3.99171 0
M  V30 6603 H 635.909 3.60617 -2.07593 0
M  V30 6604 H 634.785 4.96306 -2.34459 0
M  V30 6605 H 635.046 4.36288 -0.71452 0
M  V30 6606 N 634.105 1.10431 1.1244 0
M  V30 6607 C 635.352 0.846717 1.83948 0
M  V30 6608 C 635.68 -0.627709 1.84093 0
M  V30 6609 O 634.935 -1.47876 1.28184 0
M  V30 6610 C 635.234 1.34022 3.3132 0
M  V30 6611 C 634.9 2.82606 3.51347 0
M  V30 6612 C 633.562 3.23182 3.56521 0
M  V30 6613 C 635.914 3.78356 3.58464 0
M  V30 6614 C 633.242 4.58258 3.66356 0
M  V30 6615 C 635.594 5.13234 3.69829 0
M  V30 6616 C 634.258 5.53384 3.73259 0
M  V30 6617 H 633.528 0.309836 0.673114 0
M  V30 6618 H 636.175 1.38091 1.32677 0
M  V30 6619 H 634.48 0.726047 3.85014 0
M  V30 6620 H 636.177 1.11739 3.85118 0
M  V30 6621 H 632.767 2.50212 3.47983 0
M  V30 6622 H 636.951 3.48115 3.53737 0
M  V30 6623 H 632.207 4.88787 3.67284 0
M  V30 6624 H 636.381 5.87272 3.74279 0
M  V30 6625 H 634.008 6.58045 3.80633 0
M  V30 6626 N 635.583 -1.29855 0.893053 0
M  V30 6627 C 636.994 -1.77946 0.564998 0
M  V30 6628 C 637.345 -1.73339 -0.919134 0
M  V30 6629 O 636.47 -1.3152 -1.71847 0
M  V30 6630 C 637.065 -3.23118 1.01883 0
M  V30 6631 C 635.624 -3.69013 0.742051 0
M  V30 6632 C 634.771 -2.50121 1.19727 0
M  V30 6633 H 637.722 -1.16611 1.07646 0
M  V30 6634 H 637.743 -3.78875 0.351249 0
M  V30 6635 H 637.255 -3.26439 2.09903 0
M  V30 6636 H 635.356 -3.71173 -0.325816 0
M  V30 6637 H 635.469 -4.60117 1.33527 0
M  V30 6638 H 633.833 -2.47128 0.616418 0
M  V30 6639 H 634.616 -2.56174 2.28538 0
M  V30 6640 N 637.061 -0.65484 -1.43351 0
M  V30 6641 C 638.338 -0.0987371 -1.95351 0
M  V30 6642 C 638.718 1.38161 -1.59608 0
M  V30 6643 O 638.066 2.10791 -0.882021 0
M  V30 6644 C 638.276 -0.346684 -3.47274 0
M  V30 6645 C 639.624 -0.25249 -4.23849 0
M  V30 6646 O 640.648 -0.279332 -3.55103 0
M  V30 6647 O 639.507 -0.177584 -5.46211 0
M  V30 6648 H 636.601 0.0086829 -0.826954 0
M  V30 6649 H 639.147 -0.728189 -1.53282 0
M  V30 6650 H 637.919 -1.37296 -3.66423 0
M  V30 6651 H 637.542 0.315757 -3.96344 0
M  V30 6652 N 638.539 1.52521 -0.396863 0
M  V30 6653 C 639.785 2.01971 0.183169 0
M  V30 6654 C 640.118 1.2825 1.45827 0
M  V30 6655 O 639.393 0.385179 1.90648 0
M  V30 6656 C 639.676 3.5736 0.443391 0
M  V30 6657 C 639.529 4.41743 -0.84753 0
M  V30 6658 C 640.848 4.22539 1.2308 0
M  V30 6659 H 637.967 0.734119 0.0650976 0
M  V30 6660 H 640.609 1.82519 -0.527918 0
M  V30 6661 H 638.759 3.74066 1.04914 0
M  V30 6662 H 640.431 4.36773 -1.48414 0
M  V30 6663 H 638.674 4.0845 -1.4612 0
M  V30 6664 H 639.345 5.48507 -0.620003 0
M  V30 6665 H 641.821 4.09857 0.718084 0
M  V30 6666 H 640.697 5.31227 1.38162 0
M  V30 6667 H 640.958 3.80675 2.24808 0
M  V30 6668 N 640.017 0.126909 1.57088 0
M  V30 6669 C 641.294 -0.573152 1.87014 0
M  V30 6670 C 641.674 -1.84297 1.02945 0
M  V30 6671 O 641.022 -2.28232 0.110573 0
M  V30 6672 C 641.232 -0.857984 3.38289 0
M  V30 6673 C 642.58 -1.20759 4.07066 0
M  V30 6674 O 643.604 -0.947992 3.43353 0
M  V30 6675 O 642.463 -1.69516 5.19545 0
M  V30 6676 H 639.557 -0.290082 0.774456 0
M  V30 6677 H 642.103 0.162008 1.68925 0
M  V30 6678 H 640.875 0.0415286 3.91278 0
M  V30 6679 H 640.498 -1.64803 3.61837 0
M  V30 6680 N 641.495 -1.56914 -0.146875 0
M  V30 6681 C 642.458 -1.97368 -1.16526 0
M  V30 6682 C 643.458 -0.860223 -1.35856 0
M  V30 6683 O 644.648 -1.12684 -1.32846 0
M  V30 6684 C 641.78 -2.28974 -2.52555 0
M  V30 6685 H 642.973 -2.88523 -0.818209 0
M  V30 6686 H 640.526 -1.5135 -0.390221 0
M  V30 6687 H 641.261 -1.40611 -2.92231 0
M  V30 6688 H 641.046 -3.10157 -2.39886 0
M  V30 6689 H 642.536 -2.61109 -3.25902 0
M  V30 6690 N 642.974 0.416227 -1.52004 0
M  V30 6691 C 643.924 1.50558 -1.7122 0
M  V30 6692 C 644.908 1.50613 -0.56609 0
M  V30 6693 O 646.1 1.56709 -0.822874 0
M  V30 6694 C 643.229 2.88556 -1.85984 0
M  V30 6695 C 642.315 2.93177 -3.06445 0
M  V30 6696 N 642.706 2.67505 -4.29272 0
M  V30 6697 C 641.004 3.24343 -3.06133 0
M  V30 6698 C 641.705 2.78511 -5.10692 0
M  V30 6699 N 640.681 3.11087 -4.45787 0
M  V30 6700 H 644.483 1.29494 -2.63834 0
M  V30 6701 H 641.997 0.62384 -1.4994 0
M  V30 6702 H 643.994 3.66954 -1.97865 0
M  V30 6703 H 642.654 3.10624 -0.945654 0
M  V30 6704 H 643.665 2.42033 -4.57865 0
M  V30 6705 H 640.342 3.52051 -2.24425 0
M  V30 6706 H 641.732 2.62438 -6.18527 0
M  V30 6707 N 644.452 1.42507 0.673017 0
M  V30 6708 C 645.399 1.46124 1.78651 0
M  V30 6709 C 646.369 0.313007 1.63124 0
M  V30 6710 O 647.554 0.517337 1.83653 0
M  V30 6711 C 644.694 1.3711 3.16694 0
M  V30 6712 C 643.807 2.61983 3.43495 0
M  V30 6713 C 642.942 2.45098 4.71275 0
M  V30 6714 C 641.981 3.65336 4.91117 0
M  V30 6715 N 641.118 3.47383 6.10139 0
M  V30 6716 H 645.958 2.4128 1.74895 0
M  V30 6717 H 643.495 1.19788 0.853766 0
M  V30 6718 H 645.453 1.29881 3.96468 0
M  V30 6719 H 644.083 0.45549 3.1957 0
M  V30 6720 H 643.135 2.79571 2.57961 0
M  V30 6721 H 644.447 3.51355 3.5405 0
M  V30 6722 H 643.601 2.35466 5.59143 0
M  V30 6723 H 642.34 1.53219 4.63007 0
M  V30 6724 H 641.345 3.754 4.0169 0
M  V30 6725 H 642.57 4.58199 5.01229 0
M  V30 6726 H 640.516 2.58222 6.0304 0
M  V30 6727 H 640.433 4.30344 6.21563 0
M  V30 6728 H 641.701 3.41565 7.00681 0
M  V30 6729 N 645.93 -0.909495 1.28709 0
M  V30 6730 C 647.155 -1.69801 1.1909 0
M  V30 6731 C 647.58 -1.86479 -0.246388 0
M  V30 6732 O 646.938 -1.37802 -1.17815 0
M  V30 6733 C 646.986 -3.06543 1.89904 0
M  V30 6734 O 646.09 -3.94268 1.2094 0
M  V30 6735 H 645.431 -0.519783 0.413185 0
M  V30 6736 H 647.961 -1.13689 1.70106 0
M  V30 6737 H 647.971 -3.56748 1.97977 0
M  V30 6738 H 646.646 -2.93722 2.94449 0
M  V30 6739 H 645.223 -3.52702 1.2106 0
M  V30 6740 N 647.408 -1.11026 -1.11852 0
M  V30 6741 C 648.318 -0.777252 -2.2135 0
M  V30 6742 C 649.334 0.227821 -1.72502 0
M  V30 6743 O 650.51 0.0650587 -2.01295 0
M  V30 6744 C 647.575 -0.220668 -3.45997 0
M  V30 6745 C 646.636 -1.2838 -4.09655 0
M  V30 6746 C 645.869 -0.753678 -5.28352 0
M  V30 6747 O 646.092 0.417779 -5.68868 0
M  V30 6748 O 645.026 -1.51647 -5.82483 0
M  V30 6749 H 648.852 -1.69141 -2.5224 0
M  V30 6750 H 646.437 -0.885836 -1.20305 0
M  V30 6751 H 648.319 0.0855756 -4.21313 0
M  V30 6752 H 646.994 0.666262 -3.16769 0
M  V30 6753 H 645.901 -1.64299 -3.3609 0
M  V30 6754 H 647.234 -2.14396 -4.43052 0
M  V30 6755 N 648.886 1.2938 -0.899927 0
M  V30 6756 C 650.132 1.9584 -0.526742 0
M  V30 6757 C 650.465 1.70774 0.924651 0
M  V30 6758 O 649.74 1.02084 1.65557 0
M  V30 6759 C 650.023 3.50638 -0.820062 0
M  V30 6760 C 649.876 3.85161 -2.32317 0
M  V30 6761 C 651.195 4.3903 -0.30671 0
M  V30 6762 H 648.314 0.711322 -0.192848 0
M  V30 6763 H 650.956 1.52992 -1.12665 0
M  V30 6764 H 649.106 3.87265 -0.309491 0
M  V30 6765 H 650.778 3.58477 -2.9033 0
M  V30 6766 H 649.021 3.32696 -2.78381 0
M  V30 6767 H 649.692 4.93204 -2.47898 0
M  V30 6768 H 652.168 4.09396 -0.743908 0
M  V30 6769 H 651.044 5.46226 -0.541144 0
M  V30 6770 H 651.305 4.34937 0.792588 0
M  V30 6771 N 650.364 0.662433 1.43002 0
M  V30 6772 C 651.327 -0.0142016 2.29196 0
M  V30 6773 C 652.327 -0.741394 1.42688 0
M  V30 6774 O 653.517 -0.581257 1.64216 0
M  V30 6775 C 650.649 -1.03084 3.24941 0
M  V30 6776 H 651.842 0.7443 2.90517 0
M  V30 6777 H 649.395 0.424133 1.50435 0
M  V30 6778 H 650.13 -1.81826 2.68533 0
M  V30 6779 H 649.915 -0.512946 3.8873 0
M  V30 6780 H 651.405 -1.50308 3.89612 0
M  V30 6781 N 651.842 -1.52309 0.404946 0
M  V30 6782 C 652.792 -2.23717 -0.439864 0
M  V30 6783 C 653.776 -1.24692 -1.0169 0
M  V30 6784 O 654.968 -1.49951 -0.940409 0
M  V30 6785 C 652.097 -3.05898 -1.55825 0
M  V30 6786 C 651.183 -4.12331 -0.992188 0
M  V30 6787 N 651.574 -5.0557 -0.152424 0
M  V30 6788 C 649.872 -4.2774 -1.26312 0
M  V30 6789 C 650.573 -5.81474 0.162041 0
M  V30 6790 N 649.549 -5.41767 -0.44601 0
M  V30 6791 H 653.351 -2.93162 0.208084 0
M  V30 6792 H 650.865 -1.60969 0.215131 0
M  V30 6793 H 652.862 -3.55605 -2.17603 0
M  V30 6794 H 651.522 -2.37991 -2.20886 0
M  V30 6795 H 652.533 -5.17468 0.211556 0
M  V30 6796 H 649.21 -3.71062 -1.91362 0
M  V30 6797 H 650.6 -6.66585 0.843423 0
M  V30 6798 N 653.32 -0.135238 -1.57019 0
M  V30 6799 C 654.736 0.221262 -1.58059 0
M  V30 6800 C 654.936 1.65538 -1.14889 0
M  V30 6801 O 653.992 2.37985 -0.843751 0
M  V30 6802 C 655.305 -0.0268114 -3.00688 0
M  V30 6803 C 656.853 0.0378206 -3.12977 0
M  V30 6804 C 657.328 -0.182769 -4.57635 0
M  V30 6805 N 658.819 -0.129292 -4.6302 0
M  V30 6806 C 659.554 -0.274648 -5.72742 0
M  V30 6807 N 659.05 -0.477075 -6.91155 0
M  V30 6808 N 660.843 -0.213077 -5.61696 0
M  V30 6809 H 652.994 -1.07177 -1.83376 0
M  V30 6810 H 655.257 -0.423338 -0.848227 0
M  V30 6811 H 654.963 -1.01889 -3.36618 0
M  V30 6812 H 654.837 0.697863 -3.70688 0
M  V30 6813 H 657.224 1.02043 -2.76896 0
M  V30 6814 H 657.305 -0.718996 -2.45487 0
M  V30 6815 H 656.949 -1.16243 -4.94419 0
M  V30 6816 H 656.879 0.59423 -5.23237 0
M  V30 6817 H 659.37 0.0229896 -3.77893 0
M  V30 6818 H 659.683 -0.578413 -7.70632 0
M  V30 6819 H 658.028 -0.513252 -6.93102 0
M  V30 6820 H 661.219 -0.0557796 -4.68067 0
M  V30 6821 H 661.392 -0.329796 -6.4716 0
M  V30 6822 N 654.798 1.5699 0.138552 0
M  V30 6823 C 656.045 1.83809 0.849732 0
M  V30 6824 C 656.373 0.717409 1.80786 0
M  V30 6825 O 655.628 -0.292897 1.93496 0
M  V30 6826 C 655.927 3.17007 1.65049 0
M  V30 6827 C 655.593 4.43037 0.838398 0
M  V30 6828 C 654.255 4.77262 0.614385 0
M  V30 6829 C 656.607 5.20495 0.271044 0
M  V30 6830 C 653.935 5.864 -0.187552 0
M  V30 6831 C 656.287 6.30476 -0.517979 0
M  V30 6832 C 654.951 6.63245 -0.75249 0
M  V30 6833 H 654.221 0.672605 0.310939 0
M  V30 6834 H 656.868 1.91166 0.112971 0
M  V30 6835 H 655.173 3.05138 2.4576 0
M  V30 6836 H 656.87 3.34975 2.20437 0
M  V30 6837 H 653.46 4.16211 1.02307 0
M  V30 6838 H 657.644 4.94422 0.431371 0
M  V30 6839 H 652.9 6.10226 -0.378659 0
M  V30 6840 H 657.074 6.89686 -0.964694 0
M  V30 6841 H 654.701 7.47648 -1.37573 0
M  V30 6842 N 656.276 -0.40816 1.52223 0
M  V30 6843 C 657.223 -1.49737 1.75635 0
M  V30 6844 C 658.193 -1.5493 0.598824 0
M  V30 6845 O 659.378 -1.71487 0.83648 0
M  V30 6846 C 656.518 -2.87174 1.91376 0
M  V30 6847 C 655.631 -2.91283 3.19027 0
M  V30 6848 C 654.766 -4.20026 3.25195 0
M  V30 6849 C 653.805 -4.18113 4.47044 0
M  V30 6850 N 652.942 -5.38429 4.50598 0
M  V30 6851 H 657.782 -1.29075 2.68596 0
M  V30 6852 H 655.319 -0.626518 1.33091 0
M  V30 6853 H 657.277 -3.66959 1.98486 0
M  V30 6854 H 655.907 -3.06329 1.01795 0
M  V30 6855 H 654.959 -2.03984 3.21084 0
M  V30 6856 H 656.271 -2.85734 4.08849 0
M  V30 6857 H 655.425 -5.08204 3.31382 0
M  V30 6858 H 654.164 -4.28271 2.33313 0
M  V30 6859 H 653.169 -3.28325 4.41002 0
M  V30 6860 H 654.394 -4.11507 5.40221 0
M  V30 6861 H 652.34 -5.4734 3.616 0
M  V30 6862 H 652.257 -5.34879 5.34266 0
M  V30 6863 H 653.525 -6.28557 4.61016 0
M  V30 6864 N 657.755 -1.42862 -0.66545 0
M  V30 6865 C 659.032 -1.3431 -1.42197 0
M  V30 6866 C 659.412 0.0150265 -2.11095 0
M  V30 6867 O 658.76 1.03101 -2.03918 0
M  V30 6868 C 658.97 -2.51783 -2.41674 0
M  V30 6869 C 660.318 -2.94321 -3.0604 0
M  V30 6870 O 661.342 -2.51741 -2.52001 0
M  V30 6871 O 660.201 -3.68047 -4.03985 0
M  V30 6872 H 657.295 -0.530159 -0.634713 0
M  V30 6873 H 659.841 -1.54888 -0.693386 0
M  V30 6874 H 658.613 -3.42282 -1.89627 0
M  V30 6875 H 658.236 -2.33241 -3.22001 0
M  V30 6876 N 659.233 0.902656 -1.29189 0
M  V30 6877 C 660.163 2.02294 -1.16616 0
M  V30 6878 C 661.144 1.6999 -0.0611175 0
M  V30 6879 O 662.329 1.9271 -0.240072 0
M  V30 6880 C 659.459 3.37018 -0.83882 0
M  V30 6881 C 658.413 3.83522 -1.89986 0
M  V30 6882 C 657.739 5.15337 -1.42589 0
M  V30 6883 C 659.039 4.04169 -3.30824 0
M  V30 6884 H 660.733 2.13071 -2.10336 0
M  V30 6885 H 658.279 1.02378 -1.01266 0
M  V30 6886 H 660.232 4.14895 -0.737584 0
M  V30 6887 H 658.956 3.26325 0.134071 0
M  V30 6888 H 657.615 3.07859 -1.99043 0
M  V30 6889 H 657.263 5.01056 -0.441759 0
M  V30 6890 H 656.963 5.47423 -2.13547 0
M  V30 6891 H 658.487 5.95758 -1.3381 0
M  V30 6892 H 659.901 4.72537 -3.24626 0
M  V30 6893 H 658.298 4.47604 -3.99713 0
M  V30 6894 H 659.368 3.08604 -3.74021 0
M  V30 6895 N 660.711 1.11618 1.11262 0
M  V30 6896 C 661.959 0.864469 1.82678 0
M  V30 6897 C 662.28 -0.611564 1.85162 0
M  V30 6898 O 661.55 -1.44429 1.32352 0
M  V30 6899 H 660.13 0.316821 0.676486 0
M  V30 6900 H 662.792 1.40894 1.34666 0
M  V30 6901 H 661.888 1.23832 2.86482 0
M  V30 6902 N 662.189 -1.289 0.906776 0
M  V30 6903 C 663.099 -2.31256 0.394707 0
M  V30 6904 C 664.115 -1.66231 -0.514121 0
M  V30 6905 O 665.291 -1.97347 -0.401994 0
M  V30 6906 C 662.356 -3.44792 -0.363191 0
M  V30 6907 C 661.417 -4.25391 0.578012 0
M  V30 6908 C 660.65 -5.33506 -0.143811 0
M  V30 6909 O 660.873 -5.53786 -1.36665 0
M  V30 6910 O 659.807 -5.99673 0.5173 0
M  V30 6911 H 663.633 -2.77051 1.24405 0
M  V30 6912 H 661.218 -1.33466 0.671346 0
M  V30 6913 H 663.1 -4.139 -0.791503 0
M  V30 6914 H 661.775 -3.01093 -1.18848 0
M  V30 6915 H 660.682 -3.58899 1.05558 0
M  V30 6916 H 662.015 -4.72752 1.36992 0
M  V30 6917 N 663.667 -0.670007 -1.42649 0
M  V30 6918 C 664.577 0.0114788 -2.34597 0
M  V30 6919 C 665.593 0.794055 -1.54825 0
M  V30 6920 O 666.769 0.737472 -1.87412 0
M  V30 6921 C 663.834 0.954436 -3.33304 0
M  V30 6922 C 662.895 0.166925 -4.28975 0
M  V30 6923 C 662.128 1.06497 -5.22967 0
M  V30 6924 O 662.351 2.30446 -5.21777 0
M  V30 6925 O 661.285 0.528347 -5.99577 0
M  V30 6926 H 665.111 -0.745794 -2.944 0
M  V30 6927 H 662.696 -0.430228 -1.43071 0
M  V30 6928 H 664.578 1.49589 -3.93956 0
M  V30 6929 H 663.253 1.69164 -2.7598 0
M  V30 6930 H 662.16 -0.418515 -3.71752 0
M  V30 6931 H 663.493 -0.531067 -4.89327 0
M  V30 6932 N 665.145 1.52092 -0.413018 0
M  V30 6933 C 666.093 2.28681 0.425199 0
M  V30 6934 C 667.087 1.3353 1.04241 0
M  V30 6935 O 668.293 1.50973 0.980166 0
M  V30 6936 H 664.668 0.735661 0.155906 0
M  V30 6937 H 666.639 2.97418 -0.241926 0
M  V30 6938 C 665.388 3.1235 1.5275 0
M  V30 6939 H 664.711 3.85439 1.06191 0
M  V30 6940 H 666.151 3.69038 2.08774 0
M  V30 6941 C 664.61 2.26161 2.49706 0
M  V30 6942 O 665.14 1.90452 3.53682 0
M  V30 6943 N 663.346 1.89854 2.20008 0
M  V30 6944 H 662.893 2.19092 1.35486 0
M  V30 6945 H 662.851 1.3248 2.85125 0
M  V30 6946 N 666.623 0.143563 1.56945 0
M  V30 6947 C 667.87 -0.508407 1.96014 0
M  V30 6948 C 668.198 -1.65099 1.02824 0
M  V30 6949 O 667.453 -1.95618 0.0567764 0
M  V30 6950 C 667.752 -1.05885 3.41355 0
M  V30 6951 C 667.418 -0.0350809 4.50886 0
M  V30 6952 C 666.08 0.246362 4.80569 0
M  V30 6953 C 668.432 0.661282 5.16988 0
M  V30 6954 C 665.76 1.23003 5.73661 0
M  V30 6955 C 668.112 1.63375 6.11139 0
M  V30 6956 C 666.776 1.92292 6.39203 0
M  V30 6957 H 666.046 -0.186039 0.717266 0
M  V30 6958 H 668.693 0.229667 1.90118 0
M  V30 6959 H 666.998 -1.87419 3.44066 0
M  V30 6960 H 668.695 -1.57183 3.6891 0
M  V30 6961 H 665.285 -0.264622 4.27782 0
M  V30 6962 H 669.469 0.457038 4.94191 0
M  V30 6963 H 664.725 1.46056 5.93698 0
M  V30 6964 H 668.899 2.17887 6.61436 0
M  V30 6965 H 666.526 2.68666 7.11142 0
M  V30 6966 N 668.101 -1.57061 -0.130224 0
M  V30 6967 C 669.048 -1.99517 -1.16024 0
M  V30 6968 C 670.018 -0.865452 -1.41771 0
M  V30 6969 O 671.203 -1.12882 -1.53826 0
M  V30 6970 C 668.343 -2.3951 -2.48453 0
M  V30 6971 C 667.456 -3.65848 -2.29737 0
M  V30 6972 C 666.591 -3.9487 -3.55318 0
M  V30 6973 C 665.63 -5.14426 -3.31711 0
M  V30 6974 N 664.767 -5.39375 -4.49466 0
M  V30 6975 H 669.607 -2.87305 -0.791194 0
M  V30 6976 H 667.144 -1.42129 -0.379195 0
M  V30 6977 H 669.102 -2.60731 -3.25692 0
M  V30 6978 H 667.732 -1.54779 -2.83272 0
M  V30 6979 H 666.784 -3.52307 -1.4347 0
M  V30 6980 H 668.096 -4.53241 -2.08263 0
M  V30 6981 H 667.25 -4.16679 -4.4098 0
M  V30 6982 H 665.989 -3.05931 -3.79813 0
M  V30 6983 H 664.994 -4.92473 -2.44439 0
M  V30 6984 H 666.219 -6.04933 -3.08598 0
M  V30 6985 H 664.165 -4.53391 -4.74102 0
M  V30 6986 H 664.082 -6.21069 -4.31055 0
M  V30 6987 H 665.35 -5.65694 -5.36293 0
M  V30 6988 N 669.579 0.400081 -1.52437 0
M  V30 6989 C 670.542 1.4707 -1.75793 0
M  V30 6990 C 671.542 1.48036 -0.627856 0
M  V30 6991 O 672.732 1.49401 -0.895817 0
M  V30 6992 C 669.864 2.86427 -1.84858 0
M  V30 6993 H 671.057 1.27649 -2.71377 0
M  V30 6994 H 668.61 0.631141 -1.42991 0
M  V30 6995 H 669.345 3.11207 -0.912194 0
M  V30 6996 H 669.13 2.87128 -2.6702 0
M  V30 6997 H 670.62 3.64023 -2.04638 0
M  V30 6998 N 671.057 1.43213 0.657864 0
M  V30 6999 C 671.987 1.50815 1.78262 0
M  V30 7000 C 672.968 0.363211 1.66177 0
M  V30 7001 O 674.153 0.579806 1.85343 0
M  V30 7002 C 671.283 1.42625 3.16663 0
M  V30 7003 C 670.237 2.5532 3.43505 0
M  V30 7004 C 669.563 2.32184 4.81658 0
M  V30 7005 C 670.863 3.97583 3.38711 0
M  V30 7006 H 672.557 2.44954 1.72157 0
M  V30 7007 H 670.103 1.17896 0.82683 0
M  V30 7008 H 672.056 1.46548 3.95097 0
M  V30 7009 H 670.78 0.449877 3.23487 0
M  V30 7010 H 669.439 2.50742 2.6744 0
M  V30 7011 H 669.087 1.32801 4.85153 0
M  V30 7012 H 668.787 3.07724 5.00579 0
M  V30 7013 H 670.311 2.37883 5.62356 0
M  V30 7014 H 671.725 4.03673 4.07089 0
M  V30 7015 H 670.122 4.73112 3.69168 0
M  V30 7016 H 671.192 4.23049 2.36976 0
M  V30 7017 N 672.536 -0.895792 1.29666 0
M  V30 7018 C 673.782 -1.64908 1.18039 0
M  V30 7019 C 674.115 -1.9236 -0.266682 0
M  V30 7020 O 673.39 -1.53682 -1.19214 0
M  V30 7021 C 673.673 -2.99574 1.99819 0
M  V30 7022 C 673.526 -2.79163 3.52687 0
M  V30 7023 C 674.845 -4.00358 1.82761 0
M  V30 7024 H 671.964 -0.598437 0.430165 0
M  V30 7025 H 674.606 -1.03736 1.59182 0
M  V30 7026 H 672.756 -3.51786 1.64859 0
M  V30 7027 H 674.428 -2.33821 3.9765 0
M  V30 7028 H 672.671 -2.13871 3.77414 0
M  V30 7029 H 673.342 -3.74871 4.05186 0
M  V30 7030 H 675.818 -3.57268 2.13304 0
M  V30 7031 H 674.694 -4.92514 2.42325 0
M  V30 7032 H 674.955 -4.35096 0.783839 0
M  V30 7033 N 674.014 -1.12206 -1.10668 0
M  V30 7034 C 674.944 -0.810086 -2.18997 0
M  V30 7035 C 675.925 0.225065 -1.68604 0
M  V30 7036 O 677.11 0.086783 -1.94006 0
M  V30 7037 C 674.24 -0.261262 -3.46316 0
M  V30 7038 C 673.194 -1.2292 -4.09969 0
M  V30 7039 C 672.52 -0.540713 -5.31959 0
M  V30 7040 C 673.82 -2.58295 -4.53962 0
M  V30 7041 H 675.514 -1.7159 -2.45352 0
M  V30 7042 H 673.06 -0.82646 -1.17922 0
M  V30 7043 H 675.013 -0.0307522 -4.21389 0
M  V30 7044 H 673.737 0.679879 -3.19445 0
M  V30 7045 H 672.396 -1.44548 -3.369 0
M  V30 7046 H 672.044 0.405492 -5.01363 0
M  V30 7047 H 671.744 -1.18637 -5.75499 0
M  V30 7048 H 673.268 -0.319184 -6.09765 0
M  V30 7049 H 674.682 -2.40709 -5.20319 0
M  V30 7050 H 673.079 -3.18916 -5.08343 0
M  V30 7051 H 674.149 -3.16918 -3.67002 0
M  V30 7052 N 675.492 1.28418 -0.913599 0
M  V30 7053 C 676.741 1.94265 -0.542572 0
M  V30 7054 C 677.054 1.72709 0.918207 0
M  V30 7055 O 678.26 2.32778 1.39738 0
M  V30 7056 C 676.716 3.47956 -0.919507 0
M  V30 7057 C 676.324 3.78291 -2.4 0
M  V30 7058 C 678.068 4.19962 -0.619057 0
M  V30 7059 C 675.975 5.2529 -2.71707 0
M  V30 7060 H 674.905 0.727213 -0.199192 0
M  V30 7061 H 677.556 1.45931 -1.11249 0
M  V30 7062 H 675.938 3.9502 -0.278372 0
M  V30 7063 H 677.112 3.42035 -3.08786 0
M  V30 7064 H 675.427 3.19456 -2.67089 0
M  V30 7065 H 678.024 5.28178 -0.832623 0
M  V30 7066 H 678.367 4.13935 0.443126 0
M  V30 7067 H 678.9 3.78674 -1.21865 0
M  V30 7068 H 675.639 5.36394 -3.76778 0
M  V30 7069 H 675.159 5.62743 -2.07559 0
M  V30 7070 H 676.838 5.93027 -2.58703 0
M  V30 7071 N 676.97 0.677563 1.42291 0
M  V30 7072 C 677.933 0.0101085 2.29198 0
M  V30 7073 C 678.933 -0.726219 1.43467 0
M  V30 7074 O 680.123 -0.563807 1.64824 0
M  V30 7075 C 677.255 -0.996316 3.26016 0
M  V30 7076 H 678.448 0.775071 2.89711 0
M  V30 7077 H 676.001 0.440065 1.49977 0
M  V30 7078 H 676.736 -1.78967 2.70446 0
M  V30 7079 H 676.521 -0.471687 3.89253 0
M  V30 7080 H 678.011 -1.46167 3.91184 0
M  V30 7081 N 678.448 -1.51871 0.421078 0
M  V30 7082 C 679.695 -2.01938 -0.15079 0
M  V30 7083 C 680.023 -1.30611 -1.44121 0
M  V30 7084 O 679.278 -0.404631 -1.91471 0
M  V30 7085 C 679.577 -3.54764 -0.433292 0
M  V30 7086 C 679.243 -4.44288 0.76936 0
M  V30 7087 C 677.905 -4.68477 1.09921 0
M  V30 7088 C 680.257 -4.96915 1.57242 0
M  V30 7089 C 677.585 -5.4254 2.2331 0
M  V30 7090 C 679.937 -5.7222 2.69716 0
M  V30 7091 C 678.601 -5.94678 3.03174 0
M  V30 7092 H 677.871 -0.738943 -0.0551781 0
M  V30 7093 H 680.518 -1.82977 0.564945 0
M  V30 7094 H 678.823 -3.71968 -1.23074 0
M  V30 7095 H 680.52 -3.91023 -0.888922 0
M  V30 7096 H 677.11 -4.25646 0.502305 0
M  V30 7097 H 681.294 -4.78125 1.3308 0
M  V30 7098 H 676.55 -5.58146 2.49565 0
M  V30 7099 H 680.724 -6.11992 3.32323 0
M  V30 7100 H 678.351 -6.51848 3.9115 0
M  V30 7101 N 679.926 -0.151884 -1.56866 0
M  V30 7102 C 680.889 0.771861 -2.15812 0
M  V30 7103 C 681.889 1.17181 -1.10115 0
M  V30 7104 O 683.079 1.09194 -1.35729 0
M  V30 7105 C 680.211 2.04806 -2.7252 0
M  V30 7106 H 681.404 0.259021 -2.98779 0
M  V30 7107 H 678.957 0.097588 -1.55995 0
M  V30 7108 H 679.692 2.60445 -1.93233 0
M  V30 7109 H 679.477 1.77044 -3.49854 0
M  V30 7110 H 680.967 2.70771 -3.1792 0
M  V30 7111 N 681.404 1.57128 0.121893 0
M  V30 7112 C 682.336 1.96773 1.17529 0
M  V30 7113 C 683.349 0.866668 1.37814 0
M  V30 7114 O 684.538 1.14497 1.3694 0
M  V30 7115 C 681.638 2.24832 2.53582 0
M  V30 7116 C 680.811 3.56138 2.53939 0
M  V30 7117 C 679.87 3.72443 3.71716 0
M  V30 7118 O 678.896 4.44584 3.55434 0
M  V30 7119 N 680.098 3.10993 4.90167 0
M  V30 7120 H 682.863 2.87743 0.838086 0
M  V30 7121 H 680.424 1.58881 0.311199 0
M  V30 7122 H 682.416 2.32958 3.30927 0
M  V30 7123 H 680.986 1.40002 2.79496 0
M  V30 7124 H 680.206 3.59226 1.62329 0
M  V30 7125 H 681.494 4.42448 2.51231 0
M  V30 7126 H 680.892 2.52345 5.06299 0
M  V30 7127 H 679.449 3.24644 5.65198 0
M  V30 7128 N 682.882 -0.391992 1.52647 0
M  V30 7129 C 684.112 -1.15692 1.71169 0
M  V30 7130 C 684.52 -1.84285 0.428444 0
M  V30 7131 O 683.863 -1.73393 -0.606669 0
M  V30 7132 C 683.925 -2.25033 2.80357 0
M  V30 7133 C 683.589 -1.76433 4.21569 0
M  V30 7134 C 684.586 -1.2427 5.0483 0
M  V30 7135 C 682.271 -1.82746 4.67877 0
M  V30 7136 C 684.265 -0.790657 6.32477 0
M  V30 7137 C 681.952 -1.37153 5.9551 0
M  V30 7138 C 682.95 -0.853997 6.7764 0
M  V30 7139 O 682.638 -0.404708 8.02881 0
M  V30 7140 H 682.37 -0.35297 0.576531 0
M  V30 7141 H 684.924 -0.464994 2.00067 0
M  V30 7142 H 683.154 -2.97641 2.46874 0
M  V30 7143 H 684.843 -2.86718 2.87311 0
M  V30 7144 H 685.609 -1.18752 4.70237 0
M  V30 7145 H 681.488 -2.21971 4.04042 0
M  V30 7146 H 685.032 -0.386024 6.96531 0
M  V30 7147 H 680.929 -1.42356 6.29607 0
M  V30 7148 H 681.697 -0.526459 8.16805 0
M  V30 7149 N 684.36 -1.4356 -0.65026 0
M  V30 7150 C 685.29 -1.51758 -1.77459 0
M  V30 7151 C 686.271 -0.372019 -1.65982 0
M  V30 7152 O 687.456 -0.589627 -1.85033 0
M  V30 7153 C 684.586 -1.44302 -3.15902 0
M  V30 7154 C 683.54 -2.57138 -3.42146 0
M  V30 7155 C 682.866 -2.34735 -4.8042 0
M  V30 7156 C 684.166 -3.99373 -3.36598 0
M  V30 7157 H 685.86 -2.45863 -1.70855 0
M  V30 7158 H 683.406 -1.18333 -0.820566 0
M  V30 7159 H 685.359 -1.48641 -3.94314 0
M  V30 7160 H 684.083 -0.467026 -3.23244 0
M  V30 7161 H 682.742 -2.52157 -2.66106 0
M  V30 7162 H 682.39 -1.35372 -4.84441 0
M  V30 7163 H 682.09 -3.10375 -4.9894 0
M  V30 7164 H 683.614 -2.40862 -5.61086 0
M  V30 7165 H 685.028 -4.05826 -4.04942 0
M  V30 7166 H 683.425 -4.75063 -3.66654 0
M  V30 7167 H 684.495 -4.243 -2.34729 0
M  V30 7168 N 685.838 0.888903 -1.30139 0
M  V30 7169 C 686.77 1.99972 -1.11999 0
M  V30 7170 C 687.783 1.62673 -0.0643619 0
M  V30 7171 O 688.972 1.75788 -0.309983 0
M  V30 7172 C 686.072 3.31904 -0.685059 0
M  V30 7173 C 685.245 3.97665 -1.82158 0
M  V30 7174 C 684.304 5.07894 -1.37585 0
M  V30 7175 O 683.33 5.2974 -2.08241 0
M  V30 7176 N 684.532 5.7995 -0.252697 0
M  V30 7177 H 687.297 2.16085 -2.07671 0
M  V30 7178 H 684.858 1.06175 -1.22223 0
M  V30 7179 H 686.85 4.03005 -0.369964 0
M  V30 7180 H 685.42 3.12084 0.179507 0
M  V30 7181 H 684.64 3.19787 -2.305 0
M  V30 7182 H 685.928 4.3834 -2.58332 0
M  V30 7183 H 685.326 5.647 0.336141 0
M  V30 7184 H 683.883 6.518 0.00296813 0
M  V30 7185 N 687.317 1.12792 1.10072 0
M  V30 7186 C 688.249 0.757003 2.16338 0
M  V30 7187 C 689.262 -0.218144 1.61332 0
M  V30 7188 O 690.451 0.0010727 1.785 0
M  V30 7189 C 687.551 0.100303 3.38752 0
M  V30 7190 C 686.724 1.10586 4.2319 0
M  V30 7191 C 685.783 0.47609 5.24042 0
M  V30 7192 O 684.809 1.13418 5.57786 0
M  V30 7193 N 686.011 -0.754823 5.75572 0
M  V30 7194 H 688.776 1.6714 2.48766 0
M  V30 7195 H 686.337 1.02003 1.25726 0
M  V30 7196 H 688.329 -0.333092 4.03327 0
M  V30 7197 H 686.899 -0.716915 3.04268 0
M  V30 7198 H 686.119 1.71677 3.54853 0
M  V30 7199 H 687.407 1.78571 4.76435 0
M  V30 7200 H 686.805 -1.30838 5.50362 0
M  V30 7201 H 685.362 -1.13098 6.41913 0
M  V30 7202 N 688.795 -1.27931 0.920396 0
M  V30 7203 C 690.035 -1.96459 0.564198 0
M  V30 7204 C 690.399 -1.70802 -0.876967 0
M  V30 7205 O 691.6 -2.32956 -1.34107 0
M  V30 7206 C 689.871 -3.46583 0.872641 0
M  V30 7207 S 691.43 -4.34343 0.623859 0
M  V30 7208 H 688.248 -0.679735 0.208523 0
M  V30 7209 H 690.85 -1.55319 1.18727 0
M  V30 7210 H 689.554 -3.62753 1.91933 0
M  V30 7211 H 689.085 -3.92677 0.238479 0
M  V30 7212 H 691.1 -4.93449 -0.521744 0
M  V30 7213 N 690.273 -0.685099 -1.4193 0
M  V30 7214 C 691.684 -0.287699 -1.8447 0
M  V30 7215 C 692.035 1.17215 -1.57338 0
M  V30 7216 O 691.16 1.89856 -1.03845 0
M  V30 7217 C 691.755 -0.515385 -3.34857 0
M  V30 7218 C 690.314 -0.172006 -3.76007 0
M  V30 7219 C 689.461 -0.802808 -2.65425 0
M  V30 7220 H 692.412 -0.88652 -1.3163 0
M  V30 7221 H 692.433 0.229251 -3.79809 0
M  V30 7222 H 691.945 -1.57796 -3.54573 0
M  V30 7223 H 690.046 0.886716 -3.61895 0
M  V30 7224 H 690.159 -0.619717 -4.75075 0
M  V30 7225 H 688.523 -0.233267 -2.5363 0
M  V30 7226 H 689.306 -1.86904 -2.87961 0
M  V30 7227 N 691.751 1.51645 -0.429126 0
M  V30 7228 C 692.998 2.02015 0.140079 0
M  V30 7229 C 693.326 1.31374 1.43427 0
M  V30 7230 O 692.581 0.414779 1.91254 0
M  V30 7231 C 692.88 3.54989 0.414472 0
M  V30 7232 C 692.546 4.43874 -0.792911 0
M  V30 7233 C 691.208 4.67887 -1.12404 0
M  V30 7234 C 693.56 4.96074 -1.59875 0
M  V30 7235 C 690.888 5.41348 -2.26184 0
M  V30 7236 C 693.24 5.70782 -2.72747 0
M  V30 7237 C 691.904 5.93062 -3.06324 0
M  V30 7238 H 691.174 0.739225 0.0512585 0
M  V30 7239 H 693.821 1.82675 -0.574641 0
M  V30 7240 H 692.126 3.72615 1.21099 0
M  V30 7241 H 693.823 3.91489 0.868173 0
M  V30 7242 H 690.413 4.25374 -0.524871 0
M  V30 7243 H 694.597 4.77412 -1.35614 0
M  V30 7244 H 689.853 5.56815 -2.52522 0
M  V30 7245 H 694.027 6.10221 -3.35564 0
M  V30 7246 H 691.654 6.49764 -3.94602 0
M  V30 7247 N 693.229 0.160201 1.56784 0
M  V30 7248 C 694.139 -0.787167 2.21 0
M  V30 7249 C 695.155 -1.26167 1.19825 0
M  V30 7250 O 696.331 -1.31611 1.52448 0
M  V30 7251 C 693.396 -2.00364 2.8294 0
M  V30 7252 C 692.457 -1.5771 3.99282 0
M  V30 7253 C 691.69 -2.73558 4.58259 0
M  V30 7254 O 691.913 -3.90129 4.16119 0
M  V30 7255 O 690.847 -2.48271 5.48311 0
M  V30 7256 H 694.673 -0.270462 3.02493 0
M  V30 7257 H 692.258 -0.0674666 1.49248 0
M  V30 7258 H 694.14 -2.71529 3.22257 0
M  V30 7259 H 692.815 -2.50961 2.04451 0
M  V30 7260 H 691.722 -0.835274 3.64656 0
M  V30 7261 H 693.055 -1.11815 4.79331 0
M  V30 7262 N 694.707 -1.5719 -0.113559 0
M  V30 7263 C 695.984 -1.76117 -0.850999 0
M  V30 7264 C 696.364 -0.737085 -1.97814 0
M  V30 7265 O 695.712 0.237942 -2.27258 0
M  V30 7266 C 695.922 -3.21298 -1.36266 0
M  V30 7267 C 697.27 -3.83955 -1.81283 0
M  V30 7268 O 698.294 -3.24934 -1.45933 0
M  V30 7269 O 697.153 -4.87707 -2.46585 0
M  V30 7270 H 694.247 -0.721308 -0.404529 0
M  V30 7271 H 696.793 -1.69423 -0.0968756 0
M  V30 7272 H 695.565 -3.87355 -0.554235 0
M  V30 7273 H 695.188 -3.32552 -2.17933 0
M  V30 7274 N 696.185 0.383891 -1.52853 0
M  V30 7275 C 697.135 1.46892 -1.74375 0
M  V30 7276 C 698.119 1.49378 -0.597909 0
M  V30 7277 O 699.311 1.54929 -0.855929 0
M  V30 7278 C 696.44 2.84547 -1.92063 0
M  V30 7279 C 695.526 2.8661 -3.12594 0
M  V30 7280 N 695.917 2.58339 -4.3485 0
M  V30 7281 C 694.215 3.17777 -3.12944 0
M  V30 7282 C 694.916 2.67616 -5.16485 0
M  V30 7283 N 693.892 3.01561 -4.52285 0
M  V30 7284 H 697.694 1.23869 -2.66522 0
M  V30 7285 H 695.208 0.591895 -1.51229 0
M  V30 7286 H 697.205 3.62674 -2.05604 0
M  V30 7287 H 695.865 3.08549 -1.01133 0
M  V30 7288 H 696.876 2.32266 -4.62896 0
M  V30 7289 H 693.553 3.47211 -2.31842 0
M  V30 7290 H 694.943 2.4926 -6.23955 0
M  V30 7291 N 697.663 1.43903 0.642637 0
M  V30 7292 C 698.909 1.46296 1.40447 0
M  V30 7293 C 699.242 0.0908361 1.93987 0
M  V30 7294 O 698.517 -0.889884 1.72949 0
M  V30 7295 C 698.8 2.51399 2.57819 0
M  V30 7296 C 698.653 3.97926 2.09702 0
M  V30 7297 C 699.972 2.53125 3.60022 0
M  V30 7298 H 697.091 0.532676 0.509338 0
M  V30 7299 H 699.733 1.75515 0.727635 0
M  V30 7300 H 697.883 2.26614 3.1556 0
M  V30 7301 H 699.555 4.33804 1.5688 0
M  V30 7302 H 697.798 4.10252 1.40982 0
M  V30 7303 H 698.469 4.67096 2.94152 0
M  V30 7304 H 700.945 2.75242 3.12059 0
M  V30 7305 H 699.821 3.28589 4.39682 0
M  V30 7306 H 700.082 1.56895 4.13324 0
M  V30 7307 N 699.141 -0.881989 1.30609 0
M  V30 7308 C 700.088 -1.98803 1.17244 0
M  V30 7309 C 701.058 -1.65987 0.0611905 0
M  V30 7310 O 702.243 -1.89385 0.231911 0
M  V30 7311 C 699.383 -3.33867 0.87333 0
M  V30 7312 C 698.496 -3.79354 2.06675 0
M  V30 7313 C 697.631 -5.03078 1.70547 0
M  V30 7314 C 696.67 -5.40981 2.86366 0
M  V30 7315 N 695.807 -6.55886 2.50514 0
M  V30 7316 H 700.647 -2.09566 2.11863 0
M  V30 7317 H 698.184 -1.02607 1.05405 0
M  V30 7318 H 700.142 -4.11612 0.680519 0
M  V30 7319 H 698.772 -3.2278 -0.0359983 0
M  V30 7320 H 697.824 -2.97492 2.37071 0
M  V30 7321 H 699.136 -4.03382 2.93401 0
M  V30 7322 H 698.29 -5.88457 1.47658 0
M  V30 7323 H 697.029 -4.80927 0.809947 0
M  V30 7324 H 696.034 -4.54127 3.09917 0
M  V30 7325 H 697.259 -5.65104 3.76609 0
M  V30 7326 H 695.205 -6.35306 1.63471 0
M  V30 7327 H 695.122 -6.79799 3.30771 0
M  V30 7328 H 696.39 -7.44489 2.30989 0
M  V30 7329 N 700.619 -1.13374 -1.09472 0
M  V30 7330 C 701.549 -0.833268 -2.18126 0
M  V30 7331 C 702.53 0.207169 -1.68834 0
M  V30 7332 O 703.715 0.0662012 -1.94087 0
M  V30 7333 C 700.845 -0.297979 -3.46019 0
M  V30 7334 C 699.799 -1.27261 -4.08642 0
M  V30 7335 C 699.125 -0.597104 -5.31356 0
M  V30 7336 C 700.425 -2.63095 -4.51197 0
M  V30 7337 H 702.119 -1.74182 -2.43518 0
M  V30 7338 H 699.665 -0.838921 -1.17039 0
M  V30 7339 H 701.618 -0.0754444 -4.21332 0
M  V30 7340 H 700.342 0.645959 -3.20148 0
M  V30 7341 H 699.001 -1.48113 -3.35348 0
M  V30 7342 H 698.649 0.352293 -5.01765 0
M  V30 7343 H 698.349 -1.24734 -5.74208 0
M  V30 7344 H 699.873 -0.38384 -6.09392 0
M  V30 7345 H 701.287 -2.46214 -5.17737 0
M  V30 7346 H 699.684 -3.2429 -5.04932 0
M  V30 7347 H 700.754 -3.20793 -3.6362 0
M  V30 7348 N 702.098 1.27442 -0.927168 0
M  V30 7349 C 703.344 1.94679 -0.568164 0
M  V30 7350 C 703.677 1.72697 0.888219 0
M  V30 7351 O 702.952 1.05573 1.63354 0
M  V30 7352 C 703.235 3.4882 -0.894253 0
M  V30 7353 C 703.088 3.80146 -2.40435 0
M  V30 7354 C 704.407 4.38281 -0.399766 0
M  V30 7355 H 701.526 0.707071 -0.207892 0
M  V30 7356 H 704.168 1.50568 -1.15885 0
M  V30 7357 H 702.318 3.86522 -0.391566 0
M  V30 7358 H 703.99 3.52238 -2.97869 0
M  V30 7359 H 702.233 3.26716 -2.85375 0
M  V30 7360 H 702.904 4.87835 -2.58304 0
M  V30 7361 H 705.38 4.07726 -0.83058 0
M  V30 7362 H 704.256 5.44955 -0.656885 0
M  V30 7363 H 704.517 4.36521 0.700153 0
M  V30 7364 N 703.576 0.692616 1.41565 0
M  V30 7365 C 704.524 0.0139952 2.32596 0
M  V30 7366 C 705.518 -0.771691 1.50802 0
M  V30 7367 O 706.724 -0.677646 1.66757 0
M  V30 7368 H 703.099 -0.0142745 0.751865 0
M  V30 7369 H 705.07 0.798851 2.87508 0
M  V30 7370 C 703.819 -0.910602 3.35564 0
M  V30 7371 H 703.142 -0.315446 3.98554 0
M  V30 7372 H 704.582 -1.3538 4.01806 0
M  V30 7373 C 703.041 -2.02539 2.6922 0
M  V30 7374 O 703.571 -3.11386 2.53775 0
M  V30 7375 N 701.777 -1.80227 2.27962 0
M  V30 7376 H 701.324 -0.917054 2.40724 0
M  V30 7377 H 701.282 -2.55001 1.83907 0
M  V30 7378 N 705.054 -1.51416 0.437162 0
M  V30 7379 C 705.964 -2.31493 -0.380537 0
M  V30 7380 C 706.98 -1.40399 -1.02782 0
M  V30 7381 O 708.156 -1.73471 -1.02323 0
M  V30 7382 C 705.221 -3.1413 -1.46709 0
M  V30 7383 C 704.282 -4.21003 -0.839953 0
M  V30 7384 C 703.515 -4.9969 -1.87473 0
M  V30 7385 O 703.738 -4.79008 -3.09689 0
M  V30 7386 O 702.672 -5.8379 -1.46536 0
M  V30 7387 H 706.498 -3.02469 0.273183 0
M  V30 7388 H 704.083 -1.48059 0.199706 0
M  V30 7389 H 705.965 -3.65505 -2.09724 0
M  V30 7390 H 704.64 -2.45919 -2.10489 0
M  V30 7391 H 703.547 -3.73706 -0.171752 0
M  V30 7392 H 704.88 -4.91587 -0.245638 0
M  V30 7393 N 706.532 -0.168513 -1.56696 0
M  V30 7394 C 707.778 0.477865 -1.9709 0
M  V30 7395 C 708.111 1.63084 -1.05438 0
M  V30 7396 O 707.386 1.94238 -0.10095 0
M  V30 7397 C 707.669 0.963521 -3.4697 0
M  V30 7398 C 707.522 -0.189443 -4.49401 0
M  V30 7399 C 708.841 1.83813 -3.99876 0
M  V30 7400 H 705.96 0.172229 -0.716593 0
M  V30 7401 H 708.602 -0.254083 -1.88293 0
M  V30 7402 H 706.752 1.58724 -3.54597 0
M  V30 7403 H 708.424 -0.826451 -4.53836 0
M  V30 7404 H 706.667 -0.845366 -4.25483 0
M  V30 7405 H 707.338 0.192446 -5.51664 0
M  V30 7406 H 709.814 1.31235 -3.94863 0
M  V30 7407 H 708.69 2.14697 -5.0517 0
M  V30 7408 H 708.951 2.78289 -3.43523 0
M  V30 7409 N 708.01 1.57248 0.105221 0
M  V30 7410 C 709.238 1.89768 0.82437 0
M  V30 7411 C 709.653 0.761192 1.72775 0
M  V30 7412 O 709.01 -0.267342 1.80531 0
M  V30 7413 C 709.061 3.2184 1.64625 0
M  V30 7414 O 708.782 4.31115 0.779217 0
M  V30 7415 C 710.283 3.68155 2.46935 0
M  V30 7416 H 707.503 0.628031 0.236259 0
M  V30 7417 H 710.047 2.04321 0.085485 0
M  V30 7418 H 708.202 3.08915 2.33775 0
M  V30 7419 H 708.616 5.06897 1.34745 0
M  V30 7420 H 710.09 4.6329 3.00111 0
M  V30 7421 H 710.567 2.95492 3.24932 0
M  V30 7422 H 711.173 3.83914 1.83002 0
M  V30 7423 N 709.488 -0.375779 1.53054 0
M  V30 7424 C 710.398 -1.48381 1.81715 0
M  V30 7425 C 711.414 -1.59087 0.704795 0
M  V30 7426 O 712.59 -1.75174 0.993785 0
M  V30 7427 C 709.655 -2.83767 1.99192 0
M  V30 7428 C 708.716 -2.82673 3.23102 0
M  V30 7429 C 707.949 -4.11601 3.39736 0
M  V30 7430 O 708.172 -5.07243 2.60885 0
M  V30 7431 O 707.106 -4.18034 4.33049 0
M  V30 7432 H 710.932 -1.27089 2.7583 0
M  V30 7433 H 708.517 -0.564902 1.38308 0
M  V30 7434 H 710.399 -3.64004 2.12318 0
M  V30 7435 H 709.074 -3.05057 1.08267 0
M  V30 7436 H 707.981 -2.0117 3.15407 0
M  V30 7437 H 709.314 -2.66335 4.13916 0
M  V30 7438 N 710.966 -1.44241 -0.634997 0
M  V30 7439 C 712.213 -1.46821 -1.39463 0
M  V30 7440 C 712.541 -0.0993362 -1.94246 0
M  V30 7441 O 711.796 0.898325 -1.73864 0
M  V30 7442 C 712.095 -2.47279 -2.58046 0
M  V30 7443 C 711.761 -3.92703 -2.21574 0
M  V30 7444 C 710.423 -4.32306 -2.1134 0
M  V30 7445 C 712.775 -4.84271 -1.92695 0
M  V30 7446 C 710.103 -5.61407 -1.70409 0
M  V30 7447 C 712.455 -6.13755 -1.53258 0
M  V30 7448 C 711.119 -6.52316 -1.41562 0
M  V30 7449 H 710.389 -0.537256 -0.51033 0
M  V30 7450 H 713.036 -1.77431 -0.720441 0
M  V30 7451 H 711.341 -2.10138 -3.3068 0
M  V30 7452 H 713.038 -2.46523 -3.16271 0
M  V30 7453 H 709.628 -3.61369 -2.30456 0
M  V30 7454 H 713.812 -4.54432 -1.99513 0
M  V30 7455 H 709.068 -5.90105 -1.59955 0
M  V30 7456 H 713.242 -6.84168 -1.29949 0
M  V30 7457 H 710.869 -7.52255 -1.09619 0
M  V30 7458 N 712.444 0.87505 -1.31075 0
M  V30 7459 C 713.407 1.96333 -1.18263 0
M  V30 7460 C 714.407 1.60416 -0.111106 0
M  V30 7461 O 715.597 1.7044 -0.359987 0
M  V30 7462 C 712.729 3.31036 -0.81414 0
M  V30 7463 H 713.922 2.09125 -2.14958 0
M  V30 7464 H 711.475 1.06271 -1.14614 0
M  V30 7465 H 712.21 3.23944 0.151875 0
M  V30 7466 H 711.995 3.58476 -1.58862 0
M  V30 7467 H 713.485 4.10842 -0.748249 0
M  V30 7468 N 713.922 1.13953 1.08869 0
M  V30 7469 C 714.869 0.82213 2.15661 0
M  V30 7470 C 715.839 -0.218274 1.6466 0
M  V30 7471 O 717.024 -0.0892475 1.90591 0
M  V30 7472 C 714.164 0.300572 3.43789 0
M  V30 7473 C 713.277 1.40071 4.08661 0
M  V30 7474 C 712.412 0.836897 5.24566 0
M  V30 7475 C 711.451 1.91504 5.81371 0
M  V30 7476 N 710.588 1.36875 6.88629 0
M  V30 7477 H 715.428 1.73683 2.42153 0
M  V30 7478 H 712.965 0.866879 1.18843 0
M  V30 7479 H 714.923 -0.0199943 4.17195 0
M  V30 7480 H 713.553 -0.577248 3.17597 0
M  V30 7481 H 712.605 1.83776 3.33062 0
M  V30 7482 H 713.917 2.21534 4.46905 0
M  V30 7483 H 713.071 0.467953 6.04893 0
M  V30 7484 H 711.81 -0.00874207 4.87699 0
M  V30 7485 H 710.815 2.29299 4.99702 0
M  V30 7486 H 712.04 2.76419 6.20298 0
M  V30 7487 H 709.986 0.545211 6.5373 0
M  V30 7488 H 709.903 2.1198 7.25672 0
M  V30 7489 H 711.171 1.02756 7.72698 0
M  V30 7490 N 715.4 -1.26948 0.933913 0
M  V30 7491 C 716.628 -1.98186 0.59414 0
M  V30 7492 C 717.043 -1.69614 -0.829257 0
M  V30 7493 O 716.4 -0.960213 -1.55197 0
M  V30 7494 C 716.451 -3.52123 0.818026 0
M  V30 7495 O 716.172 -3.79698 2.18543 0
M  V30 7496 C 717.673 -4.40608 0.48781 0
M  V30 7497 H 714.893 -0.632305 0.224569 0
M  V30 7498 H 717.437 -1.61646 1.25263 0
M  V30 7499 H 715.592 -3.86851 0.206246 0
M  V30 7500 H 716.006 -4.7426 2.24005 0
M  V30 7501 H 717.48 -5.47606 0.695126 0
M  V30 7502 H 717.957 -4.35394 -0.576913 0
M  V30 7503 H 718.563 -4.11411 1.078 0
M  V30 7504 N 716.879 -0.700114 -1.41195 0
M  V30 7505 C 718.119 -0.237223 -2.03019 0
M  V30 7506 C 718.483 1.14304 -1.54268 0
M  V30 7507 O 719.684 1.70204 -2.08048 0
M  V30 7508 C 717.955 -0.297442 -3.5616 0
M  V30 7509 S 719.514 0.0907367 -4.38706 0
M  V30 7510 H 716.332 -0.0952147 -0.704596 0
M  V30 7511 H 718.934 -0.918901 -1.72559 0
M  V30 7512 H 717.638 -1.30391 -3.89135 0
M  V30 7513 H 717.169 0.403233 -3.91328 0
M  V30 7514 H 719.184 1.31721 -4.78397 0
M  V30 7515 N 718.357 1.51182 -0.445186 0
M  V30 7516 C 719.603 2.02452 0.11882 0
M  V30 7517 C 719.936 1.32824 1.41673 0
M  V30 7518 O 719.211 0.445637 1.89326 0
M  V30 7519 C 719.494 3.5859 0.329475 0
M  V30 7520 C 719.347 4.38823 -0.987638 0
M  V30 7521 C 720.666 4.26241 1.09575 0
M  V30 7522 H 717.785 0.735819 0.0417092 0
M  V30 7523 H 720.427 1.80747 -0.585718 0
M  V30 7524 H 718.577 3.77214 0.9296 0
M  V30 7525 H 720.249 4.3183 -1.62235 0
M  V30 7526 H 718.492 4.03594 -1.59041 0
M  V30 7527 H 719.163 5.46257 -0.794192 0
M  V30 7528 H 721.639 4.11934 0.587328 0
M  V30 7529 H 720.515 5.35354 1.21191 0
M  V30 7530 H 720.776 3.87635 2.12584 0
M  V30 7531 N 719.835 0.176821 1.56605 0
M  V30 7532 C 720.798 -0.737429 2.17013 0
M  V30 7533 C 721.798 -1.15414 1.11965 0
M  V30 7534 O 722.988 -1.0702 1.37449 0
M  V30 7535 C 720.12 -2.00445 2.75744 0
M  V30 7536 H 721.313 -0.211455 2.99154 0
M  V30 7537 H 718.866 -0.0727582 1.56131 0
M  V30 7538 H 719.601 -2.57338 1.97352 0
M  V30 7539 H 719.386 -1.71456 3.52626 0
M  V30 7540 H 720.876 -2.65679 3.22187 0
M  V30 7541 N 721.313 -1.57302 -0.09688 0
M  V30 7542 C 722.59 -1.7701 -0.832272 0
M  V30 7543 C 722.97 -0.758025 -1.97021 0
M  V30 7544 O 722.318 0.213824 -2.27497 0
M  V30 7545 C 722.528 -3.22725 -1.32851 0
M  V30 7546 C 723.876 -3.85856 -1.772 0
M  V30 7547 O 724.9 -3.26464 -1.42478 0
M  V30 7548 O 723.759 -4.90295 -2.41398 0
M  V30 7549 H 720.853 -0.725558 -0.396856 0
M  V30 7550 H 723.399 -1.69516 -0.0789005 0
M  V30 7551 H 722.171 -3.87921 -0.51312 0
M  V30 7552 H 721.794 -3.34845 -2.14394 0
M  V30 7553 N 722.791 0.367657 -1.53252 0
M  V30 7554 C 723.701 1.47415 -1.82499 0
M  V30 7555 C 724.717 1.58711 -0.713222 0
M  V30 7556 O 725.893 1.74644 -1.00306 0
M  V30 7557 C 722.958 2.82706 -2.00694 0
M  V30 7558 C 722.019 2.80955 -3.24596 0
M  V30 7559 C 721.252 4.09793 -3.41914 0
M  V30 7560 O 721.475 5.05852 -2.63572 0
M  V30 7561 O 720.409 4.15731 -4.3526 0
M  V30 7562 H 724.235 1.25624 -2.765 0
M  V30 7563 H 721.82 0.557559 -1.38606 0
M  V30 7564 H 723.702 3.62873 -2.14246 0
M  V30 7565 H 722.377 3.04479 -1.09883 0
M  V30 7566 H 721.284 1.99494 -3.16469 0
M  V30 7567 H 722.617 2.64136 -4.15323 0
M  V30 7568 N 724.269 1.44576 0.627338 0
M  V30 7569 C 725.494 1.51271 1.41887 0
M  V30 7570 C 725.919 0.139814 1.8758 0
M  V30 7571 O 725.277 -0.871746 1.58966 0
M  V30 7572 C 725.325 2.48529 2.61277 0
M  V30 7573 O 724.429 1.98944 3.61241 0
M  V30 7574 H 723.77 0.510668 0.424399 0
M  V30 7575 H 726.3 1.89746 0.765356 0
M  V30 7576 H 726.31 2.66689 3.08773 0
M  V30 7577 H 724.985 3.48249 2.27366 0
M  V30 7578 H 723.562 1.90568 3.20528 0
M  V30 7579 N 725.747 -0.868086 1.31537 0
M  V30 7580 C 726.71 -1.95703 1.19302 0
M  V30 7581 C 727.71 -1.60355 0.119612 0
M  V30 7582 O 728.9 -1.70247 0.36902 0
M  V30 7583 C 726.032 -3.30599 0.831684 0
M  V30 7584 H 727.225 -2.07982 2.16064 0
M  V30 7585 H 724.778 -1.05661 1.15176 0
M  V30 7586 H 725.513 -3.2402 -0.134694 0
M  V30 7587 H 725.298 -3.57629 1.60761 0
M  V30 7588 H 726.788 -4.10439 0.770026 0
M  V30 7589 N 727.225 -1.14528 -1.08264 0
M  V30 7590 C 728.135 -0.84728 -2.18765 0
M  V30 7591 C 729.151 0.172826 -1.7314 0
M  V30 7592 O 730.327 0.000985336 -2.014 0
M  V30 7593 C 727.392 -0.330633 -3.4512 0
M  V30 7594 C 726.453 -1.41348 -4.05363 0
M  V30 7595 C 725.686 -0.921387 -5.25686 0
M  V30 7596 O 725.909 0.236587 -5.69909 0
M  V30 7597 O 724.843 -1.70101 -5.77364 0
M  V30 7598 H 728.669 -1.7708 -2.46731 0
M  V30 7599 H 726.254 -0.923661 -1.17426 0
M  V30 7600 H 728.136 -0.0485053 -4.21372 0
M  V30 7601 H 726.811 0.565147 -3.18728 0
M  V30 7602 H 725.718 -1.74908 -3.30693 0
M  V30 7603 H 727.051 -2.28383 -4.36007 0
M  V30 7604 N 728.703 1.26451 -0.940633 0
M  V30 7605 C 729.651 2.28389 -0.440581 0
M  V30 7606 C 730.645 1.62402 0.481859 0
M  V30 7607 O 731.851 1.76361 0.360132 0
M  V30 7608 H 728.226 0.741716 -0.123938 0
M  V30 7609 H 730.197 2.67967 -1.31288 0
M  V30 7610 C 728.946 3.46576 0.279364 0
M  V30 7611 H 728.269 3.97574 -0.421274 0
M  V30 7612 H 729.709 4.19826 0.59348 0
M  V30 7613 C 728.168 3.01815 1.49697 0
M  V30 7614 O 728.698 3.06607 2.59529 0
M  V30 7615 N 726.904 2.57163 1.35334 0
M  V30 7616 H 726.451 2.53464 0.459743 0
M  V30 7617 H 726.409 2.27578 2.16923 0
M  V30 7618 N 730.181 0.707592 1.40822 0
M  V30 7619 C 731.421 0.247986 2.0289 0
M  V30 7620 C 731.785 -1.13484 1.54872 0
M  V30 7621 O 732.986 -1.69098 2.08948 0
M  V30 7622 C 731.257 0.316326 3.55997 0
M  V30 7623 S 732.816 -0.0674698 4.38748 0
M  V30 7624 H 729.634 0.09895 0.704081 0
M  V30 7625 H 732.236 0.928039 1.72069 0
M  V30 7626 H 730.94 1.32453 3.88438 0
M  V30 7627 H 730.471 -0.382474 3.91536 0
M  V30 7628 H 732.486 -1.29182 4.79089 0
M  V30 7629 N 731.66 -1.50943 0.453197 0
M  V30 7630 C 732.937 -1.94872 -0.168633 0
M  V30 7631 C 733.317 -1.39272 -1.5864 0
M  V30 7632 O 732.665 -0.586272 -2.20851 0
M  V30 7633 C 732.875 -3.48757 -0.130217 0
M  V30 7634 C 734.223 -4.23331 -0.327975 0
M  V30 7635 O 735.247 -3.55594 -0.207619 0
M  V30 7636 O 734.106 -5.43529 -0.569077 0
M  V30 7637 H 731.2 -0.818042 -0.121394 0
M  V30 7638 H 733.746 -1.61782 0.512316 0
M  V30 7639 H 732.518 -3.81725 0.860346 0
M  V30 7640 H 732.141 -3.88333 -0.853397 0
M  V30 7641 N 733.138 -0.185124 -1.56509 0
M  V30 7642 C 734.085 0.739729 -2.18624 0
M  V30 7643 C 735.055 1.217 -1.13042 0
M  V30 7644 O 736.24 1.28268 -1.41251 0
M  V30 7645 C 733.38 1.95787 -2.84186 0
M  V30 7646 C 732.493 1.52289 -4.04267 0
M  V30 7647 C 731.628 2.69576 -4.57714 0
M  V30 7648 C 730.667 2.22636 -5.70175 0
M  V30 7649 N 729.804 3.33065 -6.18071 0
M  V30 7650 H 734.644 0.203269 -2.97306 0
M  V30 7651 H 732.181 0.0885946 -1.46833 0
M  V30 7652 H 734.139 2.67253 -3.20361 0
M  V30 7653 H 732.769 2.4678 -2.08085 0
M  V30 7654 H 731.821 0.704458 -3.7382 0
M  V30 7655 H 733.133 1.13843 -4.85635 0
M  V30 7656 H 732.287 3.4918 -4.96143 0
M  V30 7657 H 731.026 3.1129 -3.75433 0
M  V30 7658 H 730.031 1.41483 -5.31284 0
M  V30 7659 H 731.256 1.81964 -6.54267 0
M  V30 7660 H 729.202 3.74328 -5.38715 0
M  V30 7661 H 729.119 2.98756 -6.94464 0
M  V30 7662 H 730.387 4.12912 -6.61153 0
M  V30 7663 N 734.616 1.57351 0.0885366 0
M  V30 7664 C 735.841 1.91011 0.80805 0
M  V30 7665 C 736.266 0.780009 1.71165 0
M  V30 7666 O 735.624 -0.268083 1.79307 0
M  V30 7667 C 735.672 3.23562 1.59185 0
M  V30 7668 O 734.776 3.11615 2.7013 0
M  V30 7669 H 734.117 0.625943 0.221565 0
M  V30 7670 H 736.647 2.04507 0.0617954 0
M  V30 7671 H 736.657 3.5703 1.97468 0
M  V30 7672 H 735.332 4.05398 0.928741 0
M  V30 7673 H 733.909 2.89673 2.34827 0
M  V30 7674 N 736.094 -0.359525 1.53444 0
M  V30 7675 C 737.024 -1.44662 1.8329 0
M  V30 7676 C 738.005 -1.55617 0.68683 0
M  V30 7677 O 739.19 -1.70086 0.93725 0
M  V30 7678 C 736.32 -2.81923 2.02822 0
M  V30 7679 C 735.274 -2.85787 3.18606 0
M  V30 7680 C 734.6 -4.25781 3.23442 0
M  V30 7681 C 735.9 -2.52762 4.57065 0
M  V30 7682 H 737.594 -1.19934 2.74329 0
M  V30 7683 H 735.14 -0.575517 1.31999 0
M  V30 7684 H 737.093 -3.58005 2.22285 0
M  V30 7685 H 735.817 -3.08051 1.085 0
M  V30 7686 H 734.476 -2.12157 2.98973 0
M  V30 7687 H 734.124 -4.48994 2.26745 0
M  V30 7688 H 733.824 -4.29281 4.01238 0
M  V30 7689 H 735.348 -5.03727 3.45096 0
M  V30 7690 H 736.762 -3.18557 4.76649 0
M  V30 7691 H 735.159 -2.67569 5.37147 0
M  V30 7692 H 736.229 -1.47993 4.61764 0
M  V30 7693 N 737.572 -1.44907 -0.619662 0
M  V30 7694 C 738.522 -1.49085 -1.72504 0
M  V30 7695 C 739.506 -0.355372 -1.56926 0
M  V30 7696 O 740.698 -0.601441 -1.66468 0
M  V30 7697 C 737.827 -1.44889 -3.11227 0
M  V30 7698 C 736.913 -2.63593 -3.32234 0
M  V30 7699 N 737.304 -3.88775 -3.23555 0
M  V30 7700 C 735.602 -2.59033 -3.63067 0
M  V30 7701 C 736.303 -4.67932 -3.45564 0
M  V30 7702 N 735.279 -3.9919 -3.68983 0
M  V30 7703 H 739.081 -2.43706 -1.6427 0
M  V30 7704 H 736.595 -1.4003 -0.82252 0
M  V30 7705 H 738.592 -1.45966 -3.90512 0
M  V30 7706 H 737.252 -0.513143 -3.2062 0
M  V30 7707 H 738.263 -4.20574 -3.02221 0
M  V30 7708 H 734.94 -1.7431 -3.79371 0
M  V30 7709 H 736.33 -5.76952 -3.44349 0
M  V30 7710 N 739.05 0.861098 -1.31996 0
M  V30 7711 C 740.278 1.6474 -1.25173 0
M  V30 7712 C 740.693 1.87926 0.181425 0
M  V30 7713 O 740.05 1.4437 1.1164 0
M  V30 7714 C 740.101 3.01036 -2.0015 0
M  V30 7715 O 739.822 2.7888 -3.37872 0
M  V30 7716 C 741.323 3.95481 -2.00273 0
M  V30 7717 H 738.543 0.513314 -0.432146 0
M  V30 7718 H 741.087 1.07419 -1.74016 0
M  V30 7719 H 739.242 3.55021 -1.55046 0
M  V30 7720 H 739.656 3.65514 -3.76165 0
M  V30 7721 H 741.13 4.88403 -2.57229 0
M  V30 7722 H 741.607 4.27957 -0.987407 0
M  V30 7723 H 742.213 3.47433 -2.45296 0
M  V30 7724 N 740.528 1.15101 1.07655 0
M  V30 7725 C 741.458 0.867864 2.16773 0
M  V30 7726 C 742.439 -0.180283 1.69142 0
M  V30 7727 O 743.624 -0.0353152 1.94168 0
M  V30 7728 C 740.754 0.35299 3.45501 0
M  V30 7729 C 739.708 1.33746 4.06566 0
M  V30 7730 C 739.034 0.681562 5.30338 0
M  V30 7731 C 740.334 2.7024 4.46954 0
M  V30 7732 H 742.028 1.78034 2.40716 0
M  V30 7733 H 739.574 0.857435 1.15689 0
M  V30 7734 H 741.527 0.142465 4.21159 0
M  V30 7735 H 740.251 -0.594945 3.21135 0
M  V30 7736 H 738.91 1.53429 3.32949 0
M  V30 7737 H 738.558 -0.272422 5.02262 0
M  V30 7738 H 738.258 1.33853 5.72151 0
M  V30 7739 H 739.782 0.48074 6.08705 0
M  V30 7740 H 741.196 2.5442 5.13754 0
M  V30 7741 H 739.593 3.32282 4.99709 0
M  V30 7742 H 740.663 3.26537 3.58471 0
M  V30 7743 N 742.006 -1.2595 0.947325 0
M  V30 7744 C 743.253 -1.93463 0.598178 0
M  V30 7745 C 743.581 -1.74271 -0.863705 0
M  V30 7746 O 742.836 -1.07684 -1.63409 0
M  V30 7747 C 743.135 -3.46034 0.894158 0
M  V30 7748 C 742.801 -3.85373 2.3409 0
M  V30 7749 C 741.463 -3.95823 2.73637 0
M  V30 7750 C 743.815 -4.04986 3.2808 0
M  V30 7751 C 741.143 -4.23288 4.06257 0
M  V30 7752 C 743.495 -4.3394 4.60303 0
M  V30 7753 C 742.159 -4.42606 4.99656 0
M  V30 7754 H 741.429 -0.707933 0.218889 0
M  V30 7755 H 744.076 -1.4964 1.19499 0
M  V30 7756 H 742.381 -3.9121 0.214874 0
M  V30 7757 H 744.078 -3.96445 0.602698 0
M  V30 7758 H 740.668 -3.7779 2.02417 0
M  V30 7759 H 744.852 -3.96333 2.9872 0
M  V30 7760 H 740.108 -4.28211 4.36401 0
M  V30 7761 H 744.282 -4.48061 5.33118 0
M  V30 7762 H 741.909 -4.63641 6.02446 0
M  V30 7763 N 743.484 -0.715051 -1.40445 0
M  V30 7764 C 744.732 -0.253826 -2.005 0
M  V30 7765 C 745.053 1.15681 -1.5698 0
M  V30 7766 O 744.323 1.78414 -0.809027 0
M  V30 7767 H 742.903 -0.0908537 -0.741454 0
M  V30 7768 H 745.565 -0.920561 -1.7179 0
M  V30 7769 H 744.661 -0.286499 -3.10782 0
M  V30 7770 N 744.962 1.50701 -0.461195 0
M  V30 7771 C 746.239 1.94958 0.158296 0
M  V30 7772 C 746.619 1.40111 1.57899 0
M  V30 7773 O 745.967 0.597976 2.20537 0
M  V30 7774 C 746.177 3.48821 0.11172 0
M  V30 7775 C 747.525 4.23499 0.30552 0
M  V30 7776 O 748.549 3.557 0.188758 0
M  V30 7777 O 747.408 5.43823 0.540244 0
M  V30 7778 H 744.502 0.818674 0.117054 0
M  V30 7779 H 747.048 1.61508 -0.520888 0
M  V30 7780 H 745.82 3.81263 -0.880577 0
M  V30 7781 H 745.443 3.88781 0.832791 0
M  V30 7782 N 746.441 0.193421 1.56409 0
M  V30 7783 C 747.388 -0.728124 2.19014 0
M  V30 7784 C 748.358 -1.21098 1.13686 0
M  V30 7785 O 749.543 -1.27517 1.4193 0
M  V30 7786 C 746.683 -1.94277 2.8522 0
M  V30 7787 C 745.796 -1.50143 4.05069 0
M  V30 7788 C 744.931 -2.67145 4.59137 0
M  V30 7789 C 743.97 -2.19609 5.71348 0
M  V30 7790 N 743.107 -3.29782 6.19829 0
M  V30 7791 H 747.947 -0.187499 2.9741 0
M  V30 7792 H 745.484 -0.0808064 1.46878 0
M  V30 7793 H 747.442 -2.65551 3.21774 0
M  V30 7794 H 746.072 -2.45673 2.09391 0
M  V30 7795 H 745.124 -0.684624 3.74189 0
M  V30 7796 H 746.436 -1.11266 4.86232 0
M  V30 7797 H 745.59 -3.46544 4.97988 0
M  V30 7798 H 744.329 -3.09295 3.77078 0
M  V30 7799 H 743.334 -1.38664 5.32027 0
M  V30 7800 H 744.559 -1.78492 6.55223 0
M  V30 7801 H 742.505 -3.71466 5.40693 0
M  V30 7802 H 742.422 -2.95069 6.96039 0
M  V30 7803 H 743.69 -4.094 6.63334 0
M  V30 7804 N 747.919 -1.57396 -0.0801906 0
M  V30 7805 C 748.849 -2.06145 -1.09665 0
M  V30 7806 C 749.83 -0.953273 -1.40878 0
M  V30 7807 O 751.015 -1.22548 -1.50651 0
M  V30 7808 C 748.145 -2.49836 -2.41245 0
M  V30 7809 C 747.099 -3.64454 -2.24405 0
M  V30 7810 C 746.425 -3.94172 -3.61293 0
M  V30 7811 C 747.725 -4.94807 -1.67223 0
M  V30 7812 H 749.419 -2.91316 -0.691028 0
M  V30 7813 H 746.965 -1.40145 -0.330957 0
M  V30 7814 H 748.918 -2.82552 -3.12638 0
M  V30 7815 H 747.642 -1.61683 -2.83771 0
M  V30 7816 H 746.301 -3.32008 -1.55454 0
M  V30 7817 H 745.949 -3.03163 -4.01374 0
M  V30 7818 H 745.649 -4.71345 -3.50867 0
M  V30 7819 H 747.173 -4.29376 -4.3413 0
M  V30 7820 H 748.587 -5.25807 -2.28472 0
M  V30 7821 H 746.984 -5.76245 -1.67515 0
M  V30 7822 H 748.054 -4.80751 -0.632944 0
M  V30 7823 N 749.397 0.351382 -1.53633 0
M  V30 7824 C 750.637 1.10102 -1.72212 0
M  V30 7825 C 751.001 1.86128 -0.471198 0
M  V30 7826 O 752.202 2.63445 -0.533887 0
M  V30 7827 C 750.473 2.02348 -2.94602 0
M  V30 7828 S 752.032 2.84641 -3.33954 0
M  V30 7829 H 748.85 0.372145 -0.60583 0
M  V30 7830 H 751.452 0.38044 -1.91763 0
M  V30 7831 H 750.156 1.45283 -3.83824 0
M  V30 7832 H 749.687 2.78856 -2.77493 0
M  V30 7833 H 751.702 4.04724 -2.87076 0
M  V30 7834 N 750.875 1.45233 0.611969 0
M  V30 7835 C 752.103 1.52539 1.39784 0
M  V30 7836 C 752.518 0.156533 1.8815 0
M  V30 7837 O 751.875 -0.84112 1.61961 0
M  V30 7838 C 751.926 2.50614 2.60528 0
M  V30 7839 O 751.647 3.8218 2.14173 0
M  V30 7840 C 753.148 2.67574 3.53439 0
M  V30 7841 H 750.368 0.51674 0.428043 0
M  V30 7842 H 752.912 1.90379 0.746727 0
M  V30 7843 H 751.067 2.15858 3.2169 0
M  V30 7844 H 751.481 4.35305 2.92592 0
M  V30 7845 H 752.955 3.40184 4.34717 0
M  V30 7846 H 753.432 1.73458 4.03496 0
M  V30 7847 H 754.038 3.0331 2.98133 0
M  V30 7848 N 752.353 -0.854086 1.3245 0
M  V30 7849 C 753.599 -1.61069 1.23225 0
M  V30 7850 C 753.932 -1.93111 -0.205349 0
M  V30 7851 O 753.207 -1.57397 -1.14265 0
M  V30 7852 C 753.49 -2.93065 2.09249 0
M  V30 7853 C 753.343 -2.67801 3.6139 0
M  V30 7854 C 754.662 -3.94341 1.95406 0
M  V30 7855 H 751.781 -0.584449 0.448986 0
M  V30 7856 H 754.423 -0.986189 1.62402 0
M  V30 7857 H 752.573 -3.46364 1.75967 0
M  V30 7858 H 754.245 -2.21052 4.04887 0
M  V30 7859 H 752.488 -2.01756 3.84027 0
M  V30 7860 H 753.159 -3.6179 4.16907 0
M  V30 7861 H 755.635 -3.50301 2.24562 0
M  V30 7862 H 754.511 -4.84555 2.57872 0
M  V30 7863 H 754.772 -4.32382 0.921865 0
M  V30 7864 N 753.831 -1.1567 -1.07043 0
M  V30 7865 C 754.794 -0.858906 -2.12498 0
M  V30 7866 C 755.794 0.142735 -1.60165 0
M  V30 7867 O 756.984 -0.0872678 -1.73981 0
M  V30 7868 C 754.116 -0.283021 -3.39723 0
M  V30 7869 H 755.309 -1.79368 -2.40348 0
M  V30 7870 H 752.862 -0.964608 -1.22984 0
M  V30 7871 H 753.597 0.659796 -3.17517 0
M  V30 7872 H 753.382 -1.00467 -3.7901 0
M  V30 7873 H 754.872 -0.0923543 -4.17498 0
M  V30 7874 N 755.309 1.25446 -0.953992 0
M  V30 7875 C 756.537 1.97215 -0.625595 0
M  V30 7876 C 756.952 1.70911 0.802168 0
M  V30 7877 O 756.309 0.984782 1.5365 0
M  V30 7878 C 756.36 3.50777 -0.873943 0
M  V30 7879 O 756.081 3.76173 -2.24556 0
M  V30 7880 C 757.582 4.39776 -0.557845 0
M  V30 7881 H 754.802 0.628652 -0.2346 0
M  V30 7882 H 757.346 1.59632 -1.27819 0
M  V30 7883 H 755.501 3.86474 -0.267765 0
M  V30 7884 H 755.915 4.70636 -2.31522 0
M  V30 7885 H 757.389 5.46431 -0.782157 0
M  V30 7886 H 757.866 4.36257 0.507573 0
M  V30 7887 H 758.472 4.09644 -1.14332 0
M  V30 7888 N 756.787 0.722489 1.40064 0
M  V30 7889 C 757.717 0.0892452 2.33329 0
M  V30 7890 C 758.698 -0.737992 1.53257 0
M  V30 7891 O 759.883 -0.685516 1.81698 0
M  V30 7892 C 757.013 -0.828139 3.37282 0
M  V30 7893 C 755.967 -0.106005 4.27869 0
M  V30 7894 C 755.293 -1.13957 5.22415 0
M  V30 7895 C 756.593 1.04395 5.11761 0
M  V30 7896 H 758.287 0.868269 2.86534 0
M  V30 7897 H 755.833 0.418982 1.3777 0
M  V30 7898 H 757.786 -1.28058 4.01471 0
M  V30 7899 H 756.51 -1.63914 2.82489 0
M  V30 7900 H 755.169 0.326683 3.65142 0
M  V30 7901 H 754.817 -1.9438 4.63924 0
M  V30 7902 H 754.517 -0.661233 5.83868 0
M  V30 7903 H 756.041 -1.59197 5.89482 0
M  V30 7904 H 757.455 0.670541 5.69365 0
M  V30 7905 H 755.852 1.4511 5.82291 0
M  V30 7906 H 756.922 1.87144 4.47331 0
M  V30 7907 N 758.265 -1.50454 0.469181 0
M  V30 7908 C 759.681 -1.59124 0.123226 0
M  V30 7909 C 759.881 -1.47749 -1.37013 0
M  V30 7910 O 758.937 -1.335 -2.14322 0
M  V30 7911 C 760.25 -2.93101 0.67172 0
M  V30 7912 C 761.798 -3.06491 0.634978 0
M  V30 7913 C 762.273 -4.43041 1.16098 0
M  V30 7914 N 763.764 -4.49448 1.12031 0
M  V30 7915 C 764.499 -5.53491 1.49784 0
M  V30 7916 N 763.995 -6.64798 1.94976 0
M  V30 7917 N 765.788 -5.44025 1.41399 0
M  V30 7918 H 757.939 -1.56091 1.44046 0
M  V30 7919 H 760.202 -0.737564 0.59557 0
M  V30 7920 H 759.908 -3.06895 1.7178 0
M  V30 7921 H 759.782 -3.77027 0.114222 0
M  V30 7922 H 762.169 -2.92346 -0.402187 0
M  V30 7923 H 762.25 -2.24328 1.22926 0
M  V30 7924 H 761.894 -4.57935 2.19677 0
M  V30 7925 H 761.824 -5.23794 0.542939 0
M  V30 7926 H 764.315 -3.69575 0.788828 0
M  V30 7927 H 764.628 -7.40246 2.21936 0
M  V30 7928 H 762.973 -6.65923 1.98927 0
M  V30 7929 H 766.164 -4.55955 1.05935 0
M  V30 7930 H 766.337 -6.2499 1.71147 0
M  V30 7931 N 759.743 -0.201713 -1.56304 0
M  V30 7932 C 760.653 0.728296 -2.23009 0
M  V30 7933 C 761.669 1.22945 -1.23128 0
M  V30 7934 O 762.845 1.27523 -1.55884 0
M  V30 7935 C 759.91 1.92792 -2.88153 0
M  V30 7936 C 758.971 1.47068 -4.03323 0
M  V30 7937 C 758.204 2.61312 -4.65351 0
M  V30 7938 O 758.427 3.7896 -4.26317 0
M  V30 7939 O 757.361 2.33646 -5.54701 0
M  V30 7940 H 761.187 0.190166 -3.03104 0
M  V30 7941 H 758.772 0.0278725 -1.49374 0
M  V30 7942 H 760.654 2.6289 -3.29343 0
M  V30 7943 H 759.329 2.45452 -2.11033 0
M  V30 7944 H 758.236 0.738299 -3.66742 0
M  V30 7945 H 759.569 0.990666 -4.82127 0
M  V30 7946 N 761.222 1.57436 0.0718424 0
M  V30 7947 C 762.45 1.91474 0.783932 0
M  V30 7948 C 762.865 0.797669 1.71122 0
M  V30 7949 O 762.222 -0.228989 1.81058 0
M  V30 7950 C 762.273 3.25259 1.57761 0
M  V30 7951 O 761.994 4.3267 0.687596 0
M  V30 7952 C 763.495 3.7331 2.3907 0
M  V30 7953 H 760.715 0.632901 0.222885 0
M  V30 7954 H 763.259 2.04457 0.0421262 0
M  V30 7955 H 761.414 3.13804 2.27169 0
M  V30 7956 H 761.828 5.09641 1.23962 0
M  V30 7957 H 763.302 4.69551 2.90216 0
M  V30 7958 H 763.779 3.02318 3.18591 0
M  V30 7959 H 764.385 3.8771 1.74818 0
M  V30 7960 N 762.7 -0.34323 1.53817 0
M  V30 7961 C 763.93 -1.10188 1.74763 0
M  V30 7962 C 764.338 -1.82829 0.486856 0
M  V30 7963 O 763.681 -1.75236 -0.551198 0
M  V30 7964 C 763.743 -2.16 2.87375 0
M  V30 7965 C 763.407 -1.62931 4.26969 0
M  V30 7966 C 764.404 -1.08147 5.08528 0
M  V30 7967 C 762.089 -1.67769 4.73454 0
M  V30 7968 C 764.083 -0.589039 6.34672 0
M  V30 7969 C 761.77 -1.18138 5.99572 0
M  V30 7970 C 762.768 -0.637979 6.80014 0
M  V30 7971 O 762.456 -0.149073 8.03762 0
M  V30 7972 H 762.188 -0.33445 0.587469 0
M  V30 7973 H 764.742 -0.401109 2.01445 0
M  V30 7974 H 762.972 -2.89637 2.56218 0
M  V30 7975 H 764.661 -2.77432 2.96287 0
M  V30 7976 H 765.427 -1.03732 4.73777 0
M  V30 7977 H 761.306 -2.09004 4.10899 0
M  V30 7978 H 764.85 -0.164233 6.97407 0
M  V30 7979 H 760.747 -1.22254 6.33817 0
M  V30 7980 H 761.515 -0.266332 8.18067 0
M  V30 7981 N 764.178 -1.45556 -0.604258 0
M  V30 7982 C 765.426 -1.4945 -1.36048 0
M  V30 7983 C 765.747 -0.138933 -1.94504 0
M  V30 7984 O 765.017 0.832097 -1.7735 0
M  V30 7985 H 763.597 -0.550381 -0.505064 0
M  V30 7986 H 766.259 -1.81535 -0.709308 0
M  V30 7987 H 765.355 -2.23519 -2.17821 0
M  V30 7988 N 765.656 0.84705 -1.32902 0
M  V30 7989 C 766.566 1.98845 -1.2449 0
M  V30 7990 C 767.582 1.7329 -0.15702 0
M  V30 7991 O 768.758 1.978 -0.379104 0
M  V30 7992 C 765.823 3.32679 -0.975985 0
M  V30 7993 C 764.884 3.71405 -2.15306 0
M  V30 7994 C 764.117 4.98853 -1.89688 0
M  V30 7995 O 764.34 5.64134 -0.843168 0
M  V30 7996 O 763.274 5.34889 -2.76002 0
M  V30 7997 H 767.1 2.0888 -2.2046 0
M  V30 7998 H 764.685 0.978852 -1.12867 0
M  V30 7999 H 766.567 4.12885 -0.842826 0
M  V30 8000 H 765.242 3.23667 -0.0464954 0
M  V30 8001 H 764.149 2.91743 -2.34172 0
M  V30 8002 H 765.482 3.85073 -3.06561 0
M  V30 8003 N 767.134 1.16236 1.06428 0
M  V30 8004 C 768.067 0.81119 2.13295 0
M  V30 8005 C 769.045 -0.216555 1.61151 0
M  V30 8006 O 770.229 -0.100949 1.88229 0
M  V30 8007 C 767.356 0.207901 3.38061 0
M  V30 8008 C 766.402 1.20904 4.09004 0
M  V30 8009 S 767.235 2.75513 4.59187 0
M  V30 8010 C 768.391 2.1663 5.87216 0
M  V30 8011 H 768.624 1.71632 2.42755 0
M  V30 8012 H 766.157 0.985693 1.18842 0
M  V30 8013 H 768.115 -0.133715 4.10282 0
M  V30 8014 H 766.776 -0.67497 3.06762 0
M  V30 8015 H 765.969 0.735326 4.98607 0
M  V30 8016 H 765.571 1.49567 3.42791 0
M  V30 8017 H 767.863 1.53413 6.59902 0
M  V30 8018 H 768.806 3.04437 6.39315 0
M  V30 8019 H 769.214 1.60565 5.41183 0
M  V30 8020 N 768.612 -1.24939 0.960631 0
M  V30 8021 C 769.575 -2.239 0.49006 0
M  V30 8022 C 770.575 -1.55497 -0.409535 0
M  V30 8023 O 771.765 -1.72978 -0.205984 0
M  V30 8024 C 768.897 -3.39654 -0.291193 0
M  V30 8025 H 770.09 -2.67044 1.36482 0
M  V30 8026 H 767.643 -1.37429 0.744505 0
M  V30 8027 H 768.378 -3.01939 -1.18336 0
M  V30 8028 H 768.163 -3.90496 0.354276 0
M  V30 8029 H 769.653 -4.13125 -0.609693 0
M  V30 8030 N 770.09 -0.729906 -1.39679 0
M  V30 8031 C 771.367 -0.202149 -1.94553 0
M  V30 8032 C 771.747 1.29507 -1.66707 0
M  V30 8033 O 771.095 2.05819 -0.992517 0
M  V30 8034 C 771.305 -0.530279 -3.44948 0
M  V30 8035 C 772.653 -0.476808 -4.21914 0
M  V30 8036 O 773.677 -0.467171 -3.53123 0
M  V30 8037 O 772.536 -0.466869 -5.44502 0
M  V30 8038 H 769.63 -0.0351644 -0.826252 0
M  V30 8039 H 772.176 -0.808417 -1.49207 0
M  V30 8040 H 770.948 -1.56526 -3.5863 0
M  V30 8041 H 770.571 0.10522 -3.97461 0
M  V30 8042 N 771.568 1.50203 -0.477153 0
M  V30 8043 C 772.808 2.04265 0.0744065 0
M  V30 8044 C 773.172 1.35082 1.36443 0
M  V30 8045 O 774.373 1.79732 1.99875 0
M  V30 8046 C 772.644 3.56539 0.247874 0
M  V30 8047 S 774.203 4.32219 0.757117 0
M  V30 8048 H 771.021 0.71088 0.0130891 0
M  V30 8049 H 773.623 1.8453 -0.645678 0
M  V30 8050 H 772.327 4.04443 -0.696709 0
M  V30 8051 H 771.858 3.80638 0.993896 0
M  V30 8052 H 773.873 4.52789 2.0297 0
M  V30 8053 N 773.046 0.209999 1.56195 0
M  V30 8054 C 774.286 -0.4268 1.99894 0
M  V30 8055 C 774.65 -1.57763 1.0943 0
M  V30 8056 O 775.851 -2.27964 1.42428 0
M  V30 8057 C 774.122 -0.861188 3.46869 0
M  V30 8058 S 775.681 -1.49372 4.12593 0
M  V30 8059 H 772.499 -0.135922 0.697887 0
M  V30 8060 H 775.101 0.316573 1.9292 0
M  V30 8061 H 773.805 -0.0137653 4.10398 0
M  V30 8062 H 773.336 -1.63766 3.57693 0
M  V30 8063 H 775.351 -2.7827 4.10829 0
M  V30 8064 N 774.524 -1.57472 -0.0634922 0
M  V30 8065 C 775.487 -2.03268 -1.059 0
M  V30 8066 C 776.487 -0.931028 -1.31105 0
M  V30 8067 O 777.677 -1.19567 -1.26686 0
M  V30 8068 C 774.809 -2.42039 -2.40062 0
M  V30 8069 H 776.002 -2.92454 -0.664119 0
M  V30 8070 H 773.555 -1.53206 -0.309444 0
M  V30 8071 H 774.29 -1.55904 -2.84367 0
M  V30 8072 H 774.075 -3.22437 -2.23108 0
M  V30 8073 H 775.565 -2.78017 -3.11603 0
M  V30 8074 N 776.003 0.335068 -1.53997 0
M  V30 8075 C 776.95 1.41187 -1.82579 0
M  V30 8076 C 777.92 1.51897 -0.672061 0
M  V30 8077 O 779.105 1.673 -0.917346 0
M  V30 8078 C 776.245 2.77717 -2.0486 0
M  V30 8079 C 775.358 2.7573 -3.32561 0
M  V30 8080 C 774.493 4.04032 -3.44864 0
M  V30 8081 C 773.532 3.96308 -4.66483 0
M  V30 8082 N 772.669 5.16317 -4.75774 0
M  V30 8083 H 777.509 1.16113 -2.74448 0
M  V30 8084 H 775.046 0.562305 -1.35928 0
M  V30 8085 H 777.004 3.57071 -2.15768 0
M  V30 8086 H 775.634 3.01124 -1.16294 0
M  V30 8087 H 774.686 1.88432 -3.3045 0
M  V30 8088 H 775.998 2.65902 -4.22016 0
M  V30 8089 H 775.152 4.91814 -3.55251 0
M  V30 8090 H 773.891 4.16652 -2.53481 0
M  V30 8091 H 772.896 3.06911 -4.56164 0
M  V30 8092 H 774.121 3.85263 -5.5924 0
M  V30 8093 H 772.067 5.29464 -3.87303 0
M  V30 8094 H 771.984 5.08779 -5.59178 0
M  V30 8095 H 773.252 6.05846 -4.9048 0
M  V30 8096 N 777.481 1.45874 0.596531 0
M  V30 8097 C 778.413 1.51408 1.7207 0
M  V30 8098 C 779.426 0.403738 1.57714 0
M  V30 8099 O 780.615 0.671384 1.65393 0
M  V30 8100 C 777.715 1.3652 3.10186 0
M  V30 8101 C 776.888 2.61428 3.50677 0
M  V30 8102 C 775.947 2.40937 4.67799 0
M  V30 8103 O 774.973 3.14602 4.74357 0
M  V30 8104 N 776.175 1.4621 5.61785 0
M  V30 8105 H 778.94 2.48333 1.67782 0
M  V30 8106 H 776.501 1.41755 0.782129 0
M  V30 8107 H 778.493 1.20606 3.86311 0
M  V30 8108 H 777.063 0.478302 3.08919 0
M  V30 8109 H 776.283 2.92381 2.644 0
M  V30 8110 H 777.571 3.44432 3.74491 0
M  V30 8111 H 776.969 0.854382 5.59211 0
M  V30 8112 H 775.526 1.36264 6.37397 0
M  V30 8113 N 778.959 -0.83999 1.33349 0
M  V30 8114 C 779.869 -1.98182 1.25543 0
M  V30 8115 C 780.885 -1.73204 0.166208 0
M  V30 8116 O 782.061 -1.97596 0.389589 0
M  V30 8117 C 779.126 -3.32157 0.993614 0
M  V30 8118 C 778.187 -3.70258 2.17273 0
M  V30 8119 C 777.42 -4.9784 1.92331 0
M  V30 8120 O 777.643 -5.63679 0.873074 0
M  V30 8121 O 776.577 -5.33418 2.78835 0
M  V30 8122 H 780.403 -2.07708 2.21565 0
M  V30 8123 H 777.988 -0.972852 1.13384 0
M  V30 8124 H 779.87 -4.12433 0.864711 0
M  V30 8125 H 778.545 -3.23637 0.0636596 0
M  V30 8126 H 777.452 -2.90497 2.35716 0
M  V30 8127 H 778.785 -3.83442 3.08598 0
M  V30 8128 N 780.437 -1.16799 -1.0581 0
M  V30 8129 C 781.848 -0.95945 -1.60161 0
M  V30 8130 C 782.199 0.49543 -1.89842 0
M  V30 8131 O 781.324 1.36957 -1.67546 0
M  V30 8132 C 781.919 -1.73527 -2.90987 0
M  V30 8133 C 780.478 -1.57158 -3.42021 0
M  V30 8134 C 779.625 -1.74089 -2.15843 0
M  V30 8135 H 782.576 -1.31598 -0.886992 0
M  V30 8136 H 782.597 -1.21397 -3.60615 0
M  V30 8137 H 782.109 -2.79411 -2.69353 0
M  V30 8138 H 780.21 -0.537361 -3.68705 0
M  V30 8139 H 780.323 -2.35858 -4.17022 0
M  V30 8140 H 778.687 -1.16874 -2.26302 0
M  V30 8141 H 779.47 -2.81371 -1.96686 0
M  V30 8142 N 781.915 1.24427 -0.967243 0
M  V30 8143 C 782.825 2.29109 -0.504592 0
M  V30 8144 C 783.841 1.68495 0.434224 0
M  V30 8145 O 785.017 1.99041 0.307379 0
M  V30 8146 C 782.082 3.46133 0.198273 0
M  V30 8147 C 781.143 4.22149 -0.780313 0
M  V30 8148 C 780.376 5.33585 -0.110896 0
M  V30 8149 O 780.599 5.59676 1.10088 0
M  V30 8150 O 779.533 5.96522 -0.802823 0
M  V30 8151 H 783.359 2.708 -1.37482 0
M  V30 8152 H 780.944 1.30111 -0.73426 0
M  V30 8153 H 782.826 4.17205 0.593124 0
M  V30 8154 H 781.501 3.0642 1.04347 0
M  V30 8155 H 780.408 3.53454 -1.22561 0
M  V30 8156 H 781.741 4.65677 -1.59392 0
M  V30 8157 N 783.393 0.737304 1.3929 0
M  V30 8158 C 784.809 0.413132 1.5416 0
M  V30 8159 C 785.009 -1.07574 1.70382 0
M  V30 8160 O 784.065 -1.86185 1.70562 0
M  V30 8161 C 785.378 1.19817 2.75798 0
M  V30 8162 C 786.926 1.18662 2.89635 0
M  V30 8163 C 787.401 1.95427 4.14213 0
M  V30 8164 N 788.892 1.92605 4.21257 0
M  V30 8165 C 789.627 2.48808 5.16606 0
M  V30 8166 N 789.123 3.13659 6.1773 0
M  V30 8167 N 790.916 2.38829 5.08839 0
M  V30 8168 H 783.067 1.70243 1.27008 0
M  V30 8169 H 785.33 0.720802 0.61575 0
M  V30 8170 H 785.036 2.25179 2.70161 0
M  V30 8171 H 784.91 0.804144 3.68529 0
M  V30 8172 H 787.297 0.141112 2.94762 0
M  V30 8173 H 787.378 1.62003 1.97961 0
M  V30 8174 H 787.022 2.9998 4.09847 0
M  V30 8175 H 786.952 1.4949 5.04936 0
M  V30 8176 H 789.443 1.45362 3.48824 0
M  V30 8177 H 789.756 3.54006 6.8695 0
M  V30 8178 H 788.101 3.17749 6.1811 0
M  V30 8179 H 791.292 1.87806 4.28773 0
M  V30 8180 H 791.465 2.82929 5.82971 0
M  V30 8181 N 784.871 -1.49948 0.485112 0
M  V30 8182 C 785.819 -2.30449 -0.315609 0
M  V30 8183 C 786.813 -1.38351 -0.977516 0
M  V30 8184 O 788.019 -1.55477 -0.907019 0
M  V30 8185 H 784.394 -0.742262 -0.120629 0
M  V30 8186 H 786.365 -2.95925 0.383552 0
M  V30 8187 C 785.114 -3.19283 -1.37673 0
M  V30 8188 H 784.437 -3.90067 -0.876801 0
M  V30 8189 H 785.877 -3.78579 -1.90929 0
M  V30 8190 C 784.336 -2.37817 -2.38631 0
M  V30 8191 O 784.866 -2.0711 -3.44192 0
M  V30 8192 N 783.072 -2.00135 -2.107 0
M  V30 8193 H 782.619 -2.25307 -1.24878 0
M  V30 8194 H 782.577 -1.45933 -2.7848 0
M  V30 8195 N 786.349 -0.21828 -1.56081 0
M  V30 8196 C 787.259 0.704602 -2.23769 0
M  V30 8197 C 788.275 1.21633 -1.24425 0
M  V30 8198 O 789.451 1.25862 -1.57228 0
M  V30 8199 C 786.516 1.89725 -2.90182 0
M  V30 8200 C 785.577 1.42782 -4.0486 0
M  V30 8201 C 784.81 2.56361 -4.68097 0
M  V30 8202 O 785.033 3.74417 -4.30312 0
M  V30 8203 O 783.967 2.2775 -5.57148 0
M  V30 8204 H 787.793 0.158007 -3.03289 0
M  V30 8205 H 785.378 0.0120279 -1.49395 0
M  V30 8206 H 787.26 2.59382 -3.32113 0
M  V30 8207 H 785.935 2.432 -2.13624 0
M  V30 8208 H 784.842 0.699359 -3.67505 0
M  V30 8209 H 786.175 0.939474 -4.83151 0
M  V30 8210 N 787.827 1.57504 0.0551401 0
M  V30 8211 C 789.067 1.89895 0.756252 0
M  V30 8212 C 789.431 0.813983 1.73892 0
M  V30 8213 O 790.632 1.02145 2.48636 0
M  V30 8214 C 788.903 3.27494 1.43116 0
M  V30 8215 S 790.462 3.81669 2.16504 0
M  V30 8216 H 787.28 0.665173 0.251129 0
M  V30 8217 H 789.882 1.95496 0.0117193 0
M  V30 8218 H 788.586 4.04345 0.702391 0
M  V30 8219 H 788.117 3.25132 2.21479 0
M  V30 8220 H 790.132 3.58295 3.43277 0
M  V30 8221 N 789.305 -0.326896 1.54172 0
M  V30 8222 C 790.552 -1.06523 1.72218 0
M  V30 8223 C 790.88 -1.88119 0.494114 0
M  V30 8224 O 790.135 -1.8855 -0.524147 0
M  V30 8225 C 790.434 -2.0208 2.94785 0
M  V30 8226 C 790.1 -1.36665 4.2969 0
M  V30 8227 C 788.762 -1.18556 4.66367 0
M  V30 8228 C 791.114 -0.896868 5.13425 0
M  V30 8229 C 788.442 -0.521113 5.84381 0
M  V30 8230 C 790.794 -0.246261 6.3212 0
M  V30 8231 C 789.458 -0.052987 6.67479 0
M  V30 8232 H 788.728 -0.389796 0.63019 0
M  V30 8233 H 791.375 -0.342725 1.88408 0
M  V30 8234 H 789.68 -2.8077 2.73268 0
M  V30 8235 H 791.377 -2.59231 3.05941 0
M  V30 8236 H 787.967 -1.51762 4.00832 0
M  V30 8237 H 792.151 -1.02458 4.85609 0
M  V30 8238 H 787.407 -0.36014 6.10338 0
M  V30 8239 H 791.581 0.125775 6.96286 0
M  V30 8240 H 789.208 0.463903 7.58783 0
M  V30 8241 N 790.784 -1.46188 -0.588786 0
M  V30 8242 C 791.714 -1.59148 -1.70863 0
M  V30 8243 C 792.695 -0.442083 -1.64255 0
M  V30 8244 O 793.88 -0.667575 -1.82365 0
M  V30 8245 C 791.01 -1.5757 -3.09498 0
M  V30 8246 C 789.964 -2.71418 -3.30932 0
M  V30 8247 C 789.29 -2.549 -4.70032 0
M  V30 8248 C 790.59 -4.1329 -3.19356 0
M  V30 8249 H 792.284 -2.52889 -1.60274 0
M  V30 8250 H 789.83 -1.21707 -0.769638 0
M  V30 8251 H 791.783 -1.65231 -3.87655 0
M  V30 8252 H 790.507 -0.603705 -3.20972 0
M  V30 8253 H 789.166 -2.63216 -2.55172 0
M  V30 8254 H 788.814 -1.55797 -4.78264 0
M  V30 8255 H 788.514 -3.31257 -4.85327 0
M  V30 8256 H 790.038 -2.64443 -5.50366 0
M  V30 8257 H 791.452 -4.22636 -3.87365 0
M  V30 8258 H 789.849 -4.90187 -3.46175 0
M  V30 8259 H 790.919 -4.33874 -2.16522 0
M  V30 8260 N 792.262 0.832906 -1.33792 0
M  V30 8261 C 793.194 1.95042 -1.2038 0
M  V30 8262 C 794.207 1.62253 -0.133299 0
M  V30 8263 O 795.396 1.74315 -0.384261 0
M  V30 8264 C 792.496 3.287 -0.825215 0
M  V30 8265 C 791.669 3.89581 -1.98861 0
M  V30 8266 C 790.728 5.01602 -1.59003 0
M  V30 8267 O 789.754 5.20431 -2.30522 0
M  V30 8268 N 790.956 5.78356 -0.498446 0
M  V30 8269 H 793.721 2.07083 -2.16649 0
M  V30 8270 H 791.282 1.00896 -1.26616 0
M  V30 8271 H 793.274 4.01074 -0.540559 0
M  V30 8272 H 791.844 3.12565 0.0469796 0
M  V30 8273 H 791.064 3.09723 -2.43856 0
M  V30 8274 H 792.352 4.26989 -2.76691 0
M  V30 8275 H 791.75 5.65618 0.0963297 0
M  V30 8276 H 790.307 6.51226 -0.273485 0
M  V30 8277 N 793.74 1.17359 1.05189 0
M  V30 8278 C 794.69 0.858445 2.11222 0
M  V30 8279 C 795.674 -0.166991 1.60031 0
M  V30 8280 O 796.866 0.0354456 1.76965 0
M  V30 8281 C 793.995 0.373549 3.41262 0
M  V30 8282 C 793.081 1.43041 3.99249 0
M  V30 8283 N 793.472 2.64387 4.312 0
M  V30 8284 C 791.77 1.28828 4.26989 0
M  V30 8285 C 792.471 3.32296 4.77446 0
M  V30 8286 N 791.447 2.59674 4.77567 0
M  V30 8287 H 795.249 1.78104 2.33786 0
M  V30 8288 H 792.763 1.0623 1.22837 0
M  V30 8289 H 794.76 0.129331 4.16699 0
M  V30 8290 H 793.42 -0.542847 3.2013 0
M  V30 8291 H 794.431 3.01351 4.21198 0
M  V30 8292 H 791.108 0.43353 4.15243 0
M  V30 8293 H 792.498 4.35939 5.11279 0
M  V30 8294 N 795.218 -1.23913 0.973828 0
M  V30 8295 C 796.165 -2.25132 0.508366 0
M  V30 8296 C 797.135 -1.59908 -0.449307 0
M  V30 8297 O 798.32 -1.87405 -0.358313 0
M  V30 8298 C 795.46 -3.4458 -0.189422 0
M  V30 8299 C 794.573 -4.24381 0.807738 0
M  V30 8300 C 793.708 -5.31131 0.0854315 0
M  V30 8301 C 792.747 -6.02635 1.07225 0
M  V30 8302 N 791.884 -7.01073 0.379535 0
M  V30 8303 H 796.724 -2.64313 1.37632 0
M  V30 8304 H 794.261 -1.29924 0.689802 0
M  V30 8305 H 796.219 -4.12706 -0.610733 0
M  V30 8306 H 794.849 -3.06218 -1.02129 0
M  V30 8307 H 793.901 -3.55735 1.34747 0
M  V30 8308 H 795.213 -4.73778 1.55998 0
M  V30 8309 H 794.367 -6.05422 -0.393572 0
M  V30 8310 H 793.106 -4.82658 -0.699461 0
M  V30 8311 H 792.111 -5.27143 1.56207 0
M  V30 8312 H 793.336 -6.53197 1.85769 0
M  V30 8313 H 791.282 -6.54862 -0.386269 0
M  V30 8314 H 791.199 -7.48382 1.07054 0
M  V30 8315 H 792.467 -7.79462 -0.0772984 0
M  V30 8316 N 796.696 -0.74468 -1.38897 0
M  V30 8317 C 797.973 -0.222773 -1.94327 0
M  V30 8318 C 798.353 1.27731 -1.68071 0
M  V30 8319 O 797.701 2.04754 -1.01429 0
M  V30 8320 C 797.911 -0.566836 -3.44366 0
M  V30 8321 C 799.259 -0.521531 -4.21385 0
M  V30 8322 O 800.283 -0.504599 -3.52608 0
M  V30 8323 O 799.142 -0.524595 -5.43976 0
M  V30 8324 H 796.236 -0.0439259 -0.825833 0
M  V30 8325 H 798.782 -0.824197 -1.48341 0
M  V30 8326 H 797.554 -1.60321 -3.56949 0
M  V30 8327 H 797.177 0.0630577 -3.9755 0
M  V30 8328 N 798.174 1.49689 -0.493057 0
M  V30 8329 C 799.451 1.9525 0.116907 0
M  V30 8330 C 799.831 1.43429 1.54892 0
M  V30 8331 O 799.179 0.644621 2.19219 0
M  V30 8332 C 799.389 3.4898 0.037705 0
M  V30 8333 C 800.737 4.24052 0.215621 0
M  V30 8334 O 801.761 3.5602 0.113266 0
M  V30 8335 O 800.62 5.44847 0.42477 0
M  V30 8336 H 797.714 0.820973 0.099662 0
M  V30 8337 H 800.26 1.60367 -0.555029 0
M  V30 8338 H 799.032 3.79309 -0.961251 0
M  V30 8339 H 798.655 3.9046 0.750137 0
M  V30 8340 N 799.652 0.226554 1.55963 0
M  V30 8341 C 800.6 -0.697922 2.21882 0
M  V30 8342 C 801.594 -1.19586 1.19981 0
M  V30 8343 O 802.8 -1.15511 1.38048 0
M  V30 8344 H 799.175 -0.243501 0.711485 0
M  V30 8345 H 801.146 -0.118576 2.98164 0
M  V30 8346 C 799.895 -1.89309 2.91646 0
M  V30 8347 H 799.218 -1.51906 3.69817 0
M  V30 8348 H 800.658 -2.51762 3.41162 0
M  V30 8349 C 799.117 -2.75162 1.94391 0
M  V30 8350 O 799.647 -3.74071 1.46402 0
M  V30 8351 N 797.853 -2.41302 1.61932 0
M  V30 8352 H 797.4 -1.60923 2.01151 0
M  V30 8353 H 797.358 -2.99023 0.971219 0
M  V30 8354 N 801.13 -1.57531 -0.0467866 0
M  V30 8355 C 802.541 -1.76945 -0.595603 0
M  V30 8356 C 802.892 -0.855354 -1.76573 0
M  V30 8357 O 802.017 -0.045668 -2.16352 0
M  V30 8358 C 802.612 -3.20881 -1.08725 0
M  V30 8359 C 801.171 -3.41553 -1.58172 0
M  V30 8360 C 800.318 -2.72533 -0.511968 0
M  V30 8361 H 803.269 -1.57682 0.179436 0
M  V30 8362 H 803.29 -3.26419 -1.95528 0
M  V30 8363 H 802.802 -3.87385 -0.235398 0
M  V30 8364 H 800.903 -2.80199 -2.456 0
M  V30 8365 H 801.016 -4.50104 -1.64143 0
M  V30 8366 H 799.38 -2.35797 -0.962899 0
M  V30 8367 H 800.163 -3.41709 0.330117 0
M  V30 8368 N 802.608 0.318715 -1.54344 0
M  V30 8369 C 803.556 1.41254 -1.84798 0
M  V30 8370 C 804.55 1.53325 -0.720256 0
M  V30 8371 O 805.756 1.55653 -0.903992 0
M  V30 8372 H 802.131 0.471468 -0.585851 0
M  V30 8373 H 804.102 1.12795 -2.7626 0
M  V30 8374 C 802.851 2.77395 -2.09637 0
M  V30 8375 H 802.174 2.68881 -2.95876 0
M  V30 8376 H 803.614 3.52987 -2.34896 0
M  V30 8377 C 802.073 3.24948 -0.889398 0
M  V30 8378 O 802.603 4.01573 -0.101063 0
M  V30 8379 N 800.809 2.82051 -0.699684 0
M  V30 8380 H 800.356 2.19858 -1.3424 0
M  V30 8381 H 800.314 3.1422 0.106368 0
M  V30 8382 N 804.086 1.46499 0.581025 0
M  V30 8383 C 805.016 1.60052 1.70017 0
M  V30 8384 C 805.997 0.450788 1.64018 0
M  V30 8385 O 807.182 0.677237 1.82009 0
M  V30 8386 C 804.312 1.5921 3.08658 0
M  V30 8387 C 803.266 2.73169 3.29488 0
M  V30 8388 C 802.592 2.57389 4.68674 0
M  V30 8389 C 803.892 4.14978 3.1716 0
M  V30 8390 H 805.586 2.53735 1.5893 0
M  V30 8391 H 803.132 1.22113 0.763173 0
M  V30 8392 H 805.085 1.67285 3.86773 0
M  V30 8393 H 803.809 0.620718 3.20647 0
M  V30 8394 H 802.468 2.64566 2.53773 0
M  V30 8395 H 802.116 1.58331 4.77431 0
M  V30 8396 H 801.816 3.33826 4.83564 0
M  V30 8397 H 803.34 2.67358 5.48956 0
M  V30 8398 H 804.754 4.24684 3.85119 0
M  V30 8399 H 803.151 4.92016 3.4357 0
M  V30 8400 H 804.221 4.35016 2.14218 0
M  V30 8401 N 805.565 -0.825799 1.34232 0
M  V30 8402 C 806.976 -1.39835 1.23706 0
M  V30 8403 C 807.327 -1.95709 -0.138649 0
M  V30 8404 O 806.452 -1.89833 -1.03886 0
M  V30 8405 C 807.047 -2.54203 2.23978 0
M  V30 8406 C 805.606 -3.07374 2.17251 0
M  V30 8407 C 804.753 -1.80232 2.10741 0
M  V30 8408 H 807.704 -0.630442 1.4564 0
M  V30 8409 H 807.725 -3.32214 1.8551 0
M  V30 8410 H 807.237 -2.13506 3.24094 0
M  V30 8411 H 805.338 -3.52583 1.20483 0
M  V30 8412 H 805.451 -3.6666 3.08379 0
M  V30 8413 H 803.815 -2.01012 1.56417 0
M  V30 8414 H 804.598 -1.41713 3.12686 0
M  V30 8415 N 807.043 -1.17915 -1.04565 0
M  V30 8416 C 808.459 -0.927761 -1.29864 0
M  V30 8417 C 808.659 0.409536 -1.97294 0
M  V30 8418 O 807.715 1.14505 -2.25044 0
M  V30 8419 C 809.028 -2.08967 -2.16225 0
M  V30 8420 C 810.576 -2.12741 -2.29587 0
M  V30 8421 C 811.051 -3.28335 -3.19312 0
M  V30 8422 N 812.542 -3.28164 -3.26898 0
M  V30 8423 C 813.277 -4.14249 -3.96466 0
M  V30 8424 N 812.773 -5.10457 -4.68407 0
M  V30 8425 N 814.566 -4.02179 -3.92694 0
M  V30 8426 H 806.717 -2.03983 -0.592011 0
M  V30 8427 H 808.98 -0.891023 -0.323701 0
M  V30 8428 H 808.686 -3.05654 -1.73979 0
M  V30 8429 H 808.56 -2.04606 -3.16885 0
M  V30 8430 H 810.947 -1.16636 -2.71072 0
M  V30 8431 H 811.028 -2.21162 -1.28535 0
M  V30 8432 H 810.672 -4.2471 -2.78539 0
M  V30 8433 H 810.602 -3.17151 -4.20384 0
M  V30 8434 H 813.093 -2.58511 -2.75646 0
M  V30 8435 H 813.406 -5.72526 -5.1907 0
M  V30 8436 H 811.751 -5.14422 -4.67328 0
M  V30 8437 H 814.942 -3.26308 -3.3562 0
M  V30 8438 H 815.115 -4.69486 -4.4664 0
M  V30 8439 N 808.521 1.23394 -0.980386 0
M  V30 8440 C 809.451 2.2717 -0.540024 0
M  V30 8441 C 810.432 1.64659 0.426787 0
M  V30 8442 O 811.617 1.91543 0.320153 0
M  V30 8443 C 808.747 3.46939 0.15836 0
M  V30 8444 C 807.701 4.21802 -0.725732 0
M  V30 8445 C 807.027 5.34597 0.104866 0
M  V30 8446 C 808.327 4.81802 -2.01654 0
M  V30 8447 H 810.021 2.64257 -1.40743 0
M  V30 8448 H 807.567 1.2703 -0.678193 0
M  V30 8449 H 809.52 4.18683 0.477737 0
M  V30 8450 H 808.244 3.08912 1.06022 0
M  V30 8451 H 806.903 3.51875 -1.02857 0
M  V30 8452 H 806.551 4.92812 1.00726 0
M  V30 8453 H 806.251 5.85607 -0.483557 0
M  V30 8454 H 807.775 6.09163 0.418624 0
M  V30 8455 H 809.189 5.45554 -1.76193 0
M  V30 8456 H 807.586 5.43098 -2.55273 0
M  V30 8457 H 808.656 4.02549 -2.70338 0
M  V30 8458 N 809.999 0.752036 1.385 0
M  V30 8459 C 811.245 0.307958 2.00448 0
M  V30 8460 C 811.578 -1.10702 1.59558 0
M  V30 8461 O 810.853 -1.75788 0.832391 0
M  V30 8462 C 811.136 0.429092 3.57534 0
M  V30 8463 C 810.989 1.88507 4.08393 0
M  V30 8464 C 812.308 -0.178442 4.39738 0
M  V30 8465 H 809.427 0.113373 0.728228 0
M  V30 8466 H 812.069 0.951389 1.64465 0
M  V30 8467 H 810.219 -0.118695 3.88319 0
M  V30 8468 H 811.891 2.49104 3.88259 0
M  V30 8469 H 810.134 2.40066 3.61318 0
M  V30 8470 H 810.805 1.92099 5.17496 0
M  V30 8471 H 813.281 0.28872 4.15097 0
M  V30 8472 H 812.157 -0.0634349 5.48863 0
M  V30 8473 H 812.418 -1.26655 4.23569 0
M  V30 8474 N 811.477 -1.49425 0.500989 0
M  V30 8475 C 812.893 -1.58826 0.156951 0
M  V30 8476 C 813.093 -1.50622 -1.33848 0
M  V30 8477 O 812.149 -1.38016 -2.11442 0
M  V30 8478 C 813.462 -2.91611 0.73374 0
M  V30 8479 C 815.01 -3.05076 0.699846 0
M  V30 8480 C 815.485 -4.40479 1.2547 0
M  V30 8481 N 816.976 -4.4697 1.2154 0
M  V30 8482 C 817.711 -5.50189 1.6149 0
M  V30 8483 N 817.207 -6.60512 2.09034 0
M  V30 8484 N 819 -5.40903 1.52907 0
M  V30 8485 H 811.151 -1.53001 1.47324 0
M  V30 8486 H 813.414 -0.724765 0.61108 0
M  V30 8487 H 813.12 -3.03182 1.78251 0
M  V30 8488 H 812.994 -3.767 0.19417 0
M  V30 8489 H 815.381 -2.93134 -0.340085 0
M  V30 8490 H 815.462 -2.2167 1.27656 0
M  V30 8491 H 815.106 -4.53172 2.29341 0
M  V30 8492 H 815.036 -5.22524 0.653921 0
M  V30 8493 H 817.527 -3.67819 0.867043 0
M  V30 8494 H 817.84 -7.35372 2.37588 0
M  V30 8495 H 816.185 -6.61553 2.13008 0
M  V30 8496 H 819.376 -4.53606 1.15583 0
M  V30 8497 H 819.549 -6.21219 1.84365 0
M  V30 8498 N 812.955 -0.234822 -1.55841 0
M  V30 8499 C 814.366 0.270588 -1.84729 0
M  V30 8500 C 814.717 1.58494 -1.15646 0
M  V30 8501 O 813.842 2.12071 -0.430667 0
M  V30 8502 C 814.437 0.497733 -3.35124 0
M  V30 8503 C 812.996 0.947428 -3.64281 0
M  V30 8504 C 812.143 0.01787 -2.77294 0
M  V30 8505 H 815.094 -0.457691 -1.51957 0
M  V30 8506 H 815.115 1.34199 -3.56049 0
M  V30 8507 H 814.627 -0.459037 -3.85376 0
M  V30 8508 H 812.728 1.91709 -3.19497 0
M  V30 8509 H 812.841 0.812651 -4.72158 0
M  V30 8510 H 811.205 0.527071 -2.49187 0
M  V30 8511 H 811.988 -0.934056 -3.30349 0
M  V30 8512 N 814.433 1.57553 0.0384317 0
M  V30 8513 C 815.343 2.09333 1.0591 0
M  V30 8514 C 816.359 1.0299 1.40247 0
M  V30 8515 O 817.535 1.34669 1.49754 0
M  V30 8516 C 814.6 2.55468 2.34386 0
M  V30 8517 C 813.661 3.76254 2.06716 0
M  V30 8518 C 812.894 4.20179 3.29067 0
M  V30 8519 O 813.117 3.637 4.39407 0
M  V30 8520 O 812.051 5.12697 3.15317 0
M  V30 8521 H 815.877 2.96683 0.649087 0
M  V30 8522 H 813.462 1.47211 0.254802 0
M  V30 8523 H 815.344 2.85514 3.09935 0
M  V30 8524 H 814.019 1.71234 2.74701 0
M  V30 8525 H 812.926 3.51241 1.28766 0
M  V30 8526 H 814.259 4.61443 1.71263 0
M  V30 8527 N 815.911 -0.310526 1.54511 0
M  V30 8528 C 817.157 -1.04846 1.73595 0
M  V30 8529 C 817.49 -1.87244 0.515118 0
M  V30 8530 O 816.765 -1.88282 -0.48786 0
M  V30 8531 C 817.048 -1.96237 3.01932 0
M  V30 8532 C 816.901 -1.17082 4.34295 0
M  V30 8533 C 818.22 -2.9556 3.26086 0
M  V30 8534 H 815.339 -0.37976 0.631626 0
M  V30 8535 H 817.981 -0.32394 1.87218 0
M  V30 8536 H 816.131 -2.58015 2.90449 0
M  V30 8537 H 817.803 -0.576643 4.57682 0
M  V30 8538 H 816.046 -0.473336 4.3121 0
M  V30 8539 H 816.717 -1.84257 5.20339 0
M  V30 8540 H 819.193 -2.43908 3.37117 0
M  V30 8541 H 818.069 -3.5668 4.17218 0
M  V30 8542 H 818.33 -3.68715 2.4393 0
M  V30 8543 N 817.389 -1.46805 -0.573248 0
M  V30 8544 C 818.666 -1.43082 -1.33368 0
M  V30 8545 C 819.046 -0.119252 -2.10763 0
M  V30 8546 O 818.394 0.899239 -2.10062 0
M  V30 8547 C 818.604 -2.66643 -2.25172 0
M  V30 8548 C 819.952 -3.13188 -2.86702 0
M  V30 8549 O 820.976 -2.67258 -2.35482 0
M  V30 8550 O 819.835 -3.92994 -3.79761 0
M  V30 8551 H 816.929 -0.569451 -0.599712 0
M  V30 8552 H 819.475 -1.58984 -0.59348 0
M  V30 8553 H 818.247 -3.53649 -1.67475 0
M  V30 8554 H 817.87 -2.53247 -3.06516 0
M  V30 8555 N 818.867 0.818669 -1.34668 0
M  V30 8556 C 820.113 1.57746 -1.27453 0
M  V30 8557 C 820.446 1.93588 0.154077 0
M  V30 8558 O 819.721 1.60371 1.10051 0
M  V30 8559 C 820.004 2.87414 -2.16945 0
M  V30 8560 C 819.857 2.58125 -3.68363 0
M  V30 8561 C 821.176 3.89021 -2.05792 0
M  V30 8562 H 818.295 0.572339 -0.464324 0
M  V30 8563 H 820.937 0.942784 -1.64959 0
M  V30 8564 H 819.087 3.41576 -1.85089 0
M  V30 8565 H 820.759 2.10239 -4.10606 0
M  V30 8566 H 819.002 1.91503 -3.89242 0
M  V30 8567 H 819.673 3.5061 -4.26353 0
M  V30 8568 H 822.149 3.44224 -2.33771 0
M  V30 8569 H 821.025 4.77548 -2.70628 0
M  V30 8570 H 821.286 4.29786 -1.03618 0
M  V30 8571 N 820.346 1.18468 1.03938 0
M  V30 8572 C 821.279 0.856251 2.11527 0
M  V30 8573 C 822.257 -0.182323 1.61575 0
M  V30 8574 O 823.441 -0.061 1.88401 0
M  V30 8575 C 820.568 0.279562 3.37544 0
M  V30 8576 C 819.614 1.29552 4.06348 0
M  V30 8577 S 820.447 2.85191 4.5324 0
M  V30 8578 C 821.603 2.29037 5.82489 0
M  V30 8579 H 821.836 1.76742 2.39059 0
M  V30 8580 H 819.369 1.01068 1.16725 0
M  V30 8581 H 821.327 -0.0466579 4.10473 0
M  V30 8582 H 819.988 -0.60975 3.08125 0
M  V30 8583 H 819.181 0.840922 4.96935 0
M  V30 8584 H 818.783 1.56804 3.39541 0
M  V30 8585 H 821.075 1.67376 6.565 0
M  V30 8586 H 822.018 3.17929 6.32714 0
M  V30 8587 H 822.426 1.72009 5.37655 0
M  V30 8588 N 821.824 -1.22873 0.986916 0
M  V30 8589 C 823.064 -1.93192 0.667543 0
M  V30 8590 C 823.428 -1.7521 -0.785196 0
M  V30 8591 O 824.629 -2.39737 -1.2157 0
M  V30 8592 C 822.9 -3.4147 1.05513 0
M  V30 8593 S 824.459 -4.30425 0.853218 0
M  V30 8594 H 821.277 -0.667726 0.244261 0
M  V30 8595 H 823.879 -1.48808 1.26793 0
M  V30 8596 H 822.583 -3.52069 2.10892 0
M  V30 8597 H 822.114 -3.9086 0.446293 0
M  V30 8598 H 824.129 -4.95521 -0.259444 0
M  V30 8599 N 823.302 -0.75937 -1.38099 0
M  V30 8600 C 824.53 -0.329111 -2.04266 0
M  V30 8601 C 824.945 1.04453 -1.57274 0
M  V30 8602 O 824.302 1.66449 -0.748397 0
M  V30 8603 C 824.353 -0.349192 -3.5981 0
M  V30 8604 O 824.074 -1.66863 -4.05078 0
M  V30 8605 C 825.575 0.0942106 -4.432 0
M  V30 8606 H 822.795 -0.13971 -0.656294 0
M  V30 8607 H 825.339 -1.02984 -1.76677 0
M  V30 8608 H 823.494 0.302846 -3.86214 0
M  V30 8609 H 823.908 -1.59877 -4.9954 0
M  V30 8610 H 825.382 0.0290004 -5.51992 0
M  V30 8611 H 825.859 1.1429 -4.24069 0
M  V30 8612 H 826.465 -0.529171 -4.21995 0
M  V30 8613 N 824.78 1.49157 -0.508906 0
M  V30 8614 C 825.743 2.27784 0.25434 0
M  V30 8615 C 826.743 1.34132 0.88686 0
M  V30 8616 O 827.933 1.5722 0.750168 0
M  V30 8617 C 825.065 3.12347 1.36573 0
M  V30 8618 H 826.258 2.96718 -0.435714 0
M  V30 8619 H 823.811 1.54052 -0.264128 0
M  V30 8620 H 824.546 2.47997 2.08969 0
M  V30 8621 H 824.331 3.81213 0.917543 0
M  V30 8622 H 825.821 3.71712 1.90315 0
M  V30 8623 N 826.258 0.243083 1.55714 0
M  V30 8624 C 827.505 -0.38272 1.9885 0
M  V30 8625 C 827.833 -1.58225 1.13115 0
M  V30 8626 O 827.088 -1.94861 0.181067 0
M  V30 8627 C 827.387 -0.839621 3.47398 0
M  V30 8628 C 827.053 0.251737 4.50197 0
M  V30 8629 C 825.715 0.551487 4.78029 0
M  V30 8630 C 828.067 0.988728 5.11736 0
M  V30 8631 C 825.395 1.59237 5.64677 0
M  V30 8632 C 827.747 2.0191 5.99512 0
M  V30 8633 C 826.411 2.32554 6.2568 0
M  V30 8634 H 825.681 -0.140047 0.727645 0
M  V30 8635 H 828.328 0.35011 1.88272 0
M  V30 8636 H 826.633 -1.65159 3.55288 0
M  V30 8637 H 828.33 -1.33404 3.78159 0
M  V30 8638 H 824.92 0.00796741 4.28599 0
M  V30 8639 H 829.104 0.7704 4.90284 0
M  V30 8640 H 824.36 1.83517 5.83208 0
M  V30 8641 H 828.534 2.59511 6.46241 0
M  V30 8642 H 826.161 3.13349 6.92616 0
M  V30 8643 N 827.736 -1.57571 -0.0300757 0
M  V30 8644 C 828.686 -2.02958 -1.03885 0
M  V30 8645 C 829.67 -0.918723 -1.32092 0
M  V30 8646 O 830.862 -1.18262 -1.31694 0
M  V30 8647 C 827.991 -2.51169 -2.34028 0
M  V30 8648 C 827.077 -3.69073 -2.08915 0
M  V30 8649 N 827.468 -4.81831 -1.53858 0
M  V30 8650 C 825.766 -3.76427 -2.39204 0
M  V30 8651 C 826.467 -5.6346 -1.44526 0
M  V30 8652 N 825.443 -5.08545 -1.92048 0
M  V30 8653 H 829.245 -2.8756 -0.607157 0
M  V30 8654 H 826.759 -1.6067 -0.236399 0
M  V30 8655 H 828.756 -2.81944 -3.07104 0
M  V30 8656 H 827.416 -1.67972 -2.77876 0
M  V30 8657 H 828.427 -5.03291 -1.22142 0
M  V30 8658 H 825.104 -3.04029 -2.86134 0
M  V30 8659 H 826.494 -6.64042 -1.02456 0
M  V30 8660 N 829.214 0.302327 -1.54673 0
M  V30 8661 C 830.491 1.05721 -1.64567 0
M  V30 8662 C 830.871 2.0526 -0.493108 0
M  V30 8663 O 830.219 2.22729 0.510315 0
M  V30 8664 C 830.429 1.74025 -3.02517 0
M  V30 8665 C 831.777 2.26271 -3.59286 0
M  V30 8666 O 832.801 1.8406 -3.0496 0
M  V30 8667 O 831.66 3.0361 -4.54404 0
M  V30 8668 H 828.754 0.488577 -0.667249 0
M  V30 8669 H 831.3 0.300521 -1.67018 0
M  V30 8670 H 830.072 1.0174 -3.77842 0
M  V30 8671 H 829.695 2.56454 -3.03838 0
M  V30 8672 N 830.692 1.47107 0.565454 0
M  V30 8673 C 831.64 1.59368 1.69424 0
M  V30 8674 C 832.634 0.461344 1.62997 0
M  V30 8675 O 833.84 0.638849 1.68282 0
M  V30 8676 H 830.215 0.501387 0.560459 0
M  V30 8677 H 832.186 2.54242 1.56217 0
M  V30 8678 C 830.935 1.61739 3.07792 0
M  V30 8679 H 830.258 2.48215 3.13416 0
M  V30 8680 H 831.698 1.7437 3.86486 0
M  V30 8681 C 830.157 0.349156 3.35086 0
M  V30 8682 O 830.687 -0.553287 3.97871 0
M  V30 8683 N 828.893 0.231723 2.89675 0
M  V30 8684 H 828.44 0.967021 2.3876 0
M  V30 8685 H 828.398 -0.615911 3.08308 0
M  V30 8686 N 832.17 -0.811516 1.35101 0
M  V30 8687 C 833.08 -1.95475 1.29718 0
M  V30 8688 C 834.096 -1.72813 0.202909 0
M  V30 8689 O 835.272 -1.96725 0.431414 0
M  V30 8690 C 832.337 -3.29975 1.06385 0
M  V30 8691 C 831.398 -3.65566 2.25077 0
M  V30 8692 C 830.631 -4.93648 2.02848 0
M  V30 8693 O 830.854 -5.617 0.992442 0
M  V30 8694 O 829.788 -5.27384 2.90087 0
M  V30 8695 H 833.614 -2.02961 2.25921 0
M  V30 8696 H 831.199 -0.948583 1.15422 0
M  V30 8697 H 833.081 -4.10506 0.951999 0
M  V30 8698 H 831.756 -3.2343 0.132294 0
M  V30 8699 H 830.663 -2.85432 2.41825 0
M  V30 8700 H 831.996 -3.7681 3.16662 0
M  V30 8701 N 833.648 -1.19017 -1.03309 0
M  V30 8702 C 834.558 -0.939303 -2.14975 0
M  V30 8703 C 835.574 0.0992359 -1.73717 0
M  V30 8704 O 836.75 -0.0844362 -2.01223 0
M  V30 8705 C 833.815 -0.476712 -3.43407 0
M  V30 8706 C 832.876 -1.58413 -3.99003 0
M  V30 8707 C 832.109 -1.14352 -5.21305 0
M  V30 8708 O 832.332 -0.00534408 -5.704 0
M  V30 8709 O 831.266 -1.94436 -5.6963 0
M  V30 8710 H 835.092 -1.87386 -2.38998 0
M  V30 8711 H 832.677 -0.972635 -1.13403 0
M  V30 8712 H 834.559 -0.22718 -4.20787 0
M  V30 8713 H 833.234 0.429455 -3.20839 0
M  V30 8714 H 832.141 -1.88777 -3.22977 0
M  V30 8715 H 833.474 -2.4667 -4.25928 0
M  V30 8716 N 835.127 1.22348 -0.993418 0
M  V30 8717 C 836.355 1.95125 -0.688021 0
M  V30 8718 C 836.77 1.73377 0.747388 0
M  V30 8719 O 836.127 1.03317 1.50439 0
M  V30 8720 C 836.178 3.47819 -0.985097 0
M  V30 8721 O 835.899 3.68838 -2.3641 0
M  V30 8722 C 837.4 4.37779 -0.697474 0
M  V30 8723 H 834.62 0.62087 -0.254481 0
M  V30 8724 H 837.164 1.55485 -1.32833 0
M  V30 8725 H 835.319 3.85426 -0.390583 0
M  V30 8726 H 835.733 4.63032 -2.46377 0
M  V30 8727 H 837.207 5.43666 -0.955604 0
M  V30 8728 H 837.684 4.37651 0.368524 0
M  V30 8729 H 838.29 4.05799 -1.27306 0
M  V30 8730 N 836.605 0.766683 1.37694 0
M  V30 8731 C 837.852 0.328714 1.99814 0
M  V30 8732 C 838.18 -1.09333 1.60862 0
M  V30 8733 O 837.435 -1.7657 0.8439 0
M  V30 8734 C 837.734 0.413831 3.54996 0
M  V30 8735 C 837.4 1.7934 4.137 0
M  V30 8736 C 836.062 2.17092 4.29447 0
M  V30 8737 C 838.414 2.69776 4.45949 0
M  V30 8738 C 835.742 3.44726 4.74743 0
M  V30 8739 C 838.094 3.96814 4.92667 0
M  V30 8740 C 836.758 4.34618 5.0662 0
M  V30 8741 H 836.028 0.120285 0.731172 0
M  V30 8742 H 838.675 0.97972 1.64541 0
M  V30 8743 H 836.98 -0.320723 3.90485 0
M  V30 8744 H 838.677 0.0563369 4.0096 0
M  V30 8745 H 835.267 1.48997 4.01868 0
M  V30 8746 H 839.451 2.41871 4.33373 0
M  V30 8747 H 834.707 3.73917 4.83731 0
M  V30 8748 H 838.881 4.67022 5.16588 0
M  V30 8749 H 836.508 5.33578 5.41478 0
M  V30 8750 N 838.083 -1.48885 0.516809 0
M  V30 8751 C 839.013 -2.32241 -0.242157 0
M  V30 8752 C 839.994 -1.41258 -0.947633 0
M  V30 8753 O 841.179 -1.70156 -0.935973 0
M  V30 8754 C 838.309 -3.22151 -1.29754 0
M  V30 8755 C 837.263 -4.22053 -0.710995 0
M  V30 8756 C 836.589 -5.01007 -1.86806 0
M  V30 8757 C 837.889 -5.21388 0.30853 0
M  V30 8758 H 839.583 -2.95943 0.453651 0
M  V30 8759 H 837.129 -1.42316 0.219612 0
M  V30 8760 H 839.082 -3.79284 -1.83634 0
M  V30 8761 H 837.806 -2.56423 -2.02274 0
M  V30 8762 H 836.465 -3.66087 -0.193819 0
M  V30 8763 H 836.113 -4.31713 -2.58133 0
M  V30 8764 H 835.813 -5.68615 -1.48159 0
M  V30 8765 H 837.337 -5.60989 -2.4109 0
M  V30 8766 H 838.751 -5.73122 -0.142703 0
M  V30 8767 H 837.148 -5.96975 0.611673 0
M  V30 8768 H 838.218 -4.69329 1.21894 0
M  V30 8769 N 839.561 -0.251338 -1.55583 0
M  V30 8770 C 840.508 0.646337 -2.21565 0
M  V30 8771 C 841.478 1.16796 -1.18102 0
M  V30 8772 O 842.663 1.22162 -1.46564 0
M  V30 8773 C 839.803 1.83557 -2.92234 0
M  V30 8774 C 838.916 1.35006 -4.10363 0
M  V30 8775 C 838.051 2.4992 -4.68736 0
M  V30 8776 C 837.09 1.98253 -5.79105 0
M  V30 8777 N 836.227 3.06551 -6.31642 0
M  V30 8778 H 841.067 0.0769881 -2.97901 0
M  V30 8779 H 838.604 0.026238 -1.47077 0
M  V30 8780 H 840.562 2.53425 -3.31408 0
M  V30 8781 H 839.192 2.37733 -2.18364 0
M  V30 8782 H 838.244 0.545274 -3.76472 0
M  V30 8783 H 839.556 0.931435 -4.90026 0
M  V30 8784 H 838.71 3.27823 -5.10507 0
M  V30 8785 H 837.449 2.95086 -3.88298 0
M  V30 8786 H 836.454 1.18822 -5.36807 0
M  V30 8787 H 837.679 1.54051 -6.61396 0
M  V30 8788 H 835.625 3.51143 -5.54107 0
M  V30 8789 H 835.542 2.69033 -7.06511 0
M  V30 8790 H 836.81 3.84499 -6.78071 0
M  V30 8791 N 841.039 1.57585 0.0217189 0
M  V30 8792 C 841.986 2.07036 1.02004 0
M  V30 8793 C 842.956 0.96106 1.35473 0
M  V30 8794 O 844.141 1.23211 1.45684 0
M  V30 8795 C 841.281 2.56056 2.31364 0
M  V30 8796 C 840.394 3.80805 2.03989 0
M  V30 8797 C 839.529 4.18409 3.27272 0
M  V30 8798 C 838.568 5.36055 2.95486 0
M  V30 8799 N 837.705 5.69056 4.11242 0
M  V30 8800 H 842.545 2.92073 0.591396 0
M  V30 8801 H 840.082 1.44403 0.280384 0
M  V30 8802 H 842.04 2.82548 3.06957 0
M  V30 8803 H 840.67 1.73925 2.71937 0
M  V30 8804 H 839.722 3.61354 1.1886 0
M  V30 8805 H 841.034 4.66512 1.76546 0
M  V30 8806 H 840.188 4.46068 4.11228 0
M  V30 8807 H 838.927 3.31369 3.57835 0
M  V30 8808 H 837.932 5.08142 2.09933 0
M  V30 8809 H 839.157 6.24755 2.66193 0
M  V30 8810 H 837.103 4.84974 4.41742 0
M  V30 8811 H 837.02 6.49288 3.87247 0
M  V30 8812 H 838.288 6.01295 4.96049 0
M  V30 8813 N 842.517 -0.29412 1.54831 0
M  V30 8814 C 843.747 -1.04572 1.7818 0
M  V30 8815 C 844.155 -1.81187 0.544776 0
M  V30 8816 O 843.498 -1.769 -0.495169 0
M  V30 8817 C 843.56 -2.06748 2.94101 0
M  V30 8818 C 843.224 -1.49265 4.31936 0
M  V30 8819 C 844.221 -0.919136 5.11711 0
M  V30 8820 C 841.906 -1.52621 4.78552 0
M  V30 8821 C 843.9 -0.386824 6.36225 0
M  V30 8822 C 841.587 -0.990031 6.03027 0
M  V30 8823 C 842.585 -0.421315 6.81699 0
M  V30 8824 O 842.273 0.106713 8.03829 0
M  V30 8825 H 842.005 -0.31559 0.597812 0
M  V30 8826 H 844.559 -0.336817 2.0262 0
M  V30 8827 H 842.789 -2.81339 2.65303 0
M  V30 8828 H 844.478 -2.67865 3.04964 0
M  V30 8829 H 845.244 -0.886062 4.76837 0
M  V30 8830 H 841.123 -1.95826 4.17341 0
M  V30 8831 H 844.667 0.0577248 6.97576 0
M  V30 8832 H 840.564 -1.02027 6.37386 0
M  V30 8833 H 841.332 -0.00593526 8.185 0
M  V30 8834 N 843.995 -1.47404 -0.557645 0
M  V30 8835 C 844.925 -1.62736 -1.67449 0
M  V30 8836 C 845.906 -0.476824 -1.6328 0
M  V30 8837 O 847.091 -0.706108 -1.80908 0
M  V30 8838 C 844.221 -1.641 -3.06086 0
M  V30 8839 C 843.175 -2.78377 -3.25101 0
M  V30 8840 C 842.501 -2.64812 -4.6452 0
M  V30 8841 C 843.801 -4.19971 -3.10518 0
M  V30 8842 H 845.495 -2.56232 -1.54873 0
M  V30 8843 H 843.041 -1.23312 -0.743649 0
M  V30 8844 H 844.994 -1.73417 -3.84063 0
M  V30 8845 H 843.718 -0.671652 -3.19619 0
M  V30 8846 H 842.377 -2.6857 -2.49531 0
M  V30 8847 H 842.025 -1.65906 -4.74852 0
M  V30 8848 H 841.725 -3.41477 -4.78191 0
M  V30 8849 H 843.249 -2.76057 -5.44633 0
M  V30 8850 H 844.663 -4.30757 -3.78313 0
M  V30 8851 H 843.06 -4.97419 -3.35699 0
M  V30 8852 H 844.13 -4.38369 -2.0727 0
M  V30 8853 N 845.473 0.80434 -1.35529 0
M  V30 8854 C 846.703 1.59052 -1.31856 0
M  V30 8855 C 847.111 1.88905 0.105549 0
M  V30 8856 O 846.454 1.49422 1.06858 0
M  V30 8857 C 846.516 2.94626 -2.06 0
M  V30 8858 C 846.18 2.87576 -3.55175 0
M  V30 8859 C 847.177 2.60856 -4.49722 0
M  V30 8860 C 844.862 3.06623 -3.97854 0
M  V30 8861 C 846.856 2.53262 -5.84925 0
M  V30 8862 C 844.543 2.98652 -5.33151 0
M  V30 8863 C 845.541 2.72007 -6.26499 0
M  V30 8864 O 845.229 2.64003 -7.59314 0
M  V30 8865 H 844.961 0.500486 -0.454411 0
M  V30 8866 H 847.515 1.0074 -1.78999 0
M  V30 8867 H 845.745 3.5493 -1.53498 0
M  V30 8868 H 847.434 3.55785 -1.95376 0
M  V30 8869 H 848.2 2.45858 -4.18066 0
M  V30 8870 H 844.079 3.26372 -3.2558 0
M  V30 8871 H 847.623 2.32386 -6.57756 0
M  V30 8872 H 843.52 3.13208 -5.64421 0
M  V30 8873 H 844.288 2.79595 -7.69265 0
M  V30 8874 N 846.951 1.19563 1.02676 0
M  V30 8875 C 847.861 0.950691 2.14474 0
M  V30 8876 C 848.877 -0.0900219 1.73767 0
M  V30 8877 O 850.053 0.0951063 2.01175 0
M  V30 8878 C 847.118 0.494917 3.43149 0
M  V30 8879 C 846.179 1.60527 3.98158 0
M  V30 8880 C 845.412 1.17115 5.20692 0
M  V30 8881 O 845.635 0.0355937 5.70389 0
M  V30 8882 O 844.569 1.97454 5.68591 0
M  V30 8883 H 848.395 1.88651 2.38001 0
M  V30 8884 H 845.98 0.978635 1.12885 0
M  V30 8885 H 847.862 0.249492 4.20661 0
M  V30 8886 H 846.537 -0.412434 3.21062 0
M  V30 8887 H 845.444 1.90487 3.21971 0
M  V30 8888 H 846.777 2.48925 4.24614 0
M  V30 8889 N 848.429 -1.21819 0.999893 0
M  V30 8890 C 849.678 -1.90066 0.675108 0
M  V30 8891 C 849.991 -1.78624 -0.79705 0
M  V30 8892 O 851.197 -2.41851 -1.23371 0
M  V30 8893 C 849.653 -3.40795 1.15702 0
M  V30 8894 C 849.261 -3.60859 2.6549 0
M  V30 8895 C 851.005 -4.147 0.906889 0
M  V30 8896 C 848.912 -5.05324 3.07248 0
M  V30 8897 H 847.842 -0.711763 0.248815 0
M  V30 8898 H 850.493 -1.3792 1.21038 0
M  V30 8899 H 848.875 -3.92164 0.549832 0
M  V30 8900 H 850.049 -3.19951 3.31614 0
M  V30 8901 H 848.364 -3.00298 2.88461 0
M  V30 8902 H 850.961 -5.21187 1.1945 0
M  V30 8903 H 851.304 -4.16004 -0.156923 0
M  V30 8904 H 851.837 -3.69379 1.47662 0
M  V30 8905 H 848.576 -5.09164 4.12834 0
M  V30 8906 H 848.096 -5.47108 2.45832 0
M  V30 8907 H 849.775 -5.73797 2.98941 0
M  V30 8908 N 849.908 -0.773975 -1.37286 0
M  V30 8909 C 850.871 -0.167974 -2.28584 0
M  V30 8910 C 851.871 0.625662 -1.48129 0
M  V30 8911 O 853.061 0.448924 -1.68316 0
M  V30 8912 C 850.193 0.769364 -3.32105 0
M  V30 8913 H 851.386 -0.972806 -2.83684 0
M  V30 8914 H 848.939 -0.542335 -1.46589 0
M  V30 8915 H 849.674 1.59912 -2.82132 0
M  V30 8916 H 849.459 0.202419 -3.91577 0
M  V30 8917 H 850.949 1.18872 -4.00324 0
M  V30 8918 N 851.386 1.48609 -0.524698 0
M  V30 8919 C 852.802 1.58557 -0.182199 0
M  V30 8920 C 853.002 1.52732 1.31435 0
M  V30 8921 O 852.058 1.41362 2.0922 0
M  V30 8922 C 853.371 2.90406 -0.78004 0
M  V30 8923 C 854.919 3.03924 -0.748293 0
M  V30 8924 C 855.394 4.38427 -1.32462 0
M  V30 8925 N 856.885 4.4498 -1.28635 0
M  V30 8926 C 857.62 5.47551 -1.70223 0
M  V30 8927 N 857.116 6.57103 -2.19515 0
M  V30 8928 N 858.909 5.38402 -1.61493 0
M  V30 8929 H 851.06 1.50638 -1.4974 0
M  V30 8930 H 853.323 0.714952 -0.622533 0
M  V30 8931 H 853.029 3.00308 -1.83052 0
M  V30 8932 H 852.903 3.76343 -0.254075 0
M  V30 8933 H 855.29 2.93638 0.293407 0
M  V30 8934 H 855.371 2.19611 -1.31167 0
M  V30 8935 H 855.015 4.49466 -2.36522 0
M  V30 8936 H 854.945 5.21418 -0.736967 0
M  V30 8937 H 857.436 3.66393 -0.92545 0
M  V30 8938 H 857.749 7.31499 -2.49257 0
M  V30 8939 H 856.094 6.58081 -2.23506 0
M  V30 8940 H 859.285 4.5171 -1.22785 0
M  V30 8941 H 859.458 6.18208 -1.94225 0
M  V30 8942 N 852.864 0.259585 1.55447 0
M  V30 8943 C 854.28 -0.094961 1.59317 0
M  V30 8944 C 854.48 -1.55884 1.2768 0
M  V30 8945 O 853.536 -2.30528 1.0302 0
M  V30 8946 C 854.849 0.265669 2.99524 0
M  V30 8947 C 856.397 0.211007 3.12288 0
M  V30 8948 C 856.872 0.545851 4.54736 0
M  V30 8949 N 858.363 0.496823 4.60528 0
M  V30 8950 C 859.098 0.728909 5.68748 0
M  V30 8951 N 858.594 1.02479 6.85179 0
M  V30 8952 N 860.387 0.658756 5.58226 0
M  V30 8953 H 852.538 1.2141 1.7428 0
M  V30 8954 H 854.801 0.489404 0.811904 0
M  V30 8955 H 854.507 1.28316 3.27457 0
M  V30 8956 H 854.381 -0.401089 3.75061 0
M  V30 8957 H 856.768 -0.797172 2.84129 0
M  V30 8958 H 856.849 0.911799 2.38998 0
M  V30 8959 H 856.493 1.55164 4.83618 0
M  V30 8960 H 856.423 -0.17656 5.26304 0
M  V30 8961 H 858.914 0.277376 3.76881 0
M  V30 8962 H 859.227 1.18897 7.63599 0
M  V30 8963 H 857.572 1.0624 6.86832 0
M  V30 8964 H 860.763 0.427553 4.66143 0
M  V30 8965 H 860.936 0.84302 6.42493 0
M  V30 8966 N 854.342 -1.57594 -0.0133615 0
M  V30 8967 C 855.292 -2.04048 -1.01726 0
M  V30 8968 C 856.276 -0.932682 -1.3111 0
M  V30 8969 O 857.468 -1.19652 -1.30432 0
M  V30 8970 C 854.597 -2.53637 -2.31351 0
M  V30 8971 C 853.683 -3.71269 -2.04989 0
M  V30 8972 N 854.074 -4.83436 -1.48739 0
M  V30 8973 C 852.372 -3.78943 -2.35198 0
M  V30 8974 C 853.073 -5.64961 -1.38542 0
M  V30 8975 N 852.049 -5.10554 -1.86643 0
M  V30 8976 H 855.851 -2.88188 -0.576623 0
M  V30 8977 H 853.365 -1.60912 -0.219344 0
M  V30 8978 H 855.362 -2.85186 -3.04096 0
M  V30 8979 H 854.022 -1.7091 -2.76079 0
M  V30 8980 H 855.033 -5.04558 -1.16798 0
M  V30 8981 H 851.71 -3.07047 -2.82893 0
M  V30 8982 H 853.1 -6.65092 -0.954075 0
M  V30 8983 N 855.82 0.285905 -1.54985 0
M  V30 8984 C 857.231 0.857869 -1.65824 0
M  V30 8985 C 857.582 1.87531 -0.576763 0
M  V30 8986 O 856.707 2.14528 0.284016 0
M  V30 8987 C 857.302 1.56277 -3.00604 0
M  V30 8988 C 855.861 2.08294 -3.13513 0
M  V30 8989 C 855.008 0.920633 -2.61571 0
M  V30 8990 H 857.959 0.0625463 -1.58577 0
M  V30 8991 H 857.98 2.42912 -2.92872 0
M  V30 8992 H 857.492 0.822017 -3.79295 0
M  V30 8993 H 855.593 2.8537 -2.39572 0
M  V30 8994 H 855.706 2.3071 -4.19892 0
M  V30 8995 H 854.07 1.31043 -2.18403 0
M  V30 8996 H 854.853 0.193594 -3.42754 0
M  V30 8997 N 857.298 1.47698 0.54982 0
M  V30 8998 C 858.528 1.58101 1.32995 0
M  V30 8999 C 858.936 0.232939 1.87761 0
M  V30 9000 O 858.279 -0.785058 1.6608 0
M  V30 9001 C 858.341 2.55228 2.53178 0
M  V30 9002 C 858.005 4.00756 2.19645 0
M  V30 9003 C 859.002 4.89025 1.76496 0
M  V30 9004 C 856.687 4.46147 2.30777 0
M  V30 9005 C 858.681 6.20707 1.44919 0
M  V30 9006 C 856.368 5.77856 1.98812 0
M  V30 9007 C 857.366 6.64957 1.55952 0
M  V30 9008 O 857.054 7.94217 1.24396 0
M  V30 9009 H 856.786 0.536362 0.411451 0
M  V30 9010 H 859.34 1.94092 0.67212 0
M  V30 9011 H 857.57 2.14319 3.21876 0
M  V30 9012 H 859.259 2.55678 3.15251 0
M  V30 9013 H 860.025 4.55201 1.67383 0
M  V30 9014 H 855.904 3.78552 2.63096 0
M  V30 9015 H 859.448 6.88649 1.11392 0
M  V30 9016 H 855.345 6.11219 2.0756 0
M  V30 9017 H 856.113 8.06789 1.37964 0
M  V30 9018 N 858.776 -0.797141 1.35954 0
M  V30 9019 C 860.023 -1.55468 1.29754 0
M  V30 9020 C 860.351 -1.94095 -0.125391 0
M  V30 9021 O 859.606 -1.62341 -1.09288 0
M  V30 9022 C 859.905 -2.84847 2.15863 0
M  V30 9023 C 859.571 -2.65394 3.64523 0
M  V30 9024 C 858.233 -2.59796 4.05042 0
M  V30 9025 C 860.585 -2.4727 4.58811 0
M  V30 9026 C 857.913 -2.3403 5.38002 0
M  V30 9027 C 860.265 -2.23032 5.91979 0
M  V30 9028 C 858.929 -2.15862 6.31633 0
M  V30 9029 H 858.199 -0.568897 0.474803 0
M  V30 9030 H 860.846 -0.920299 1.67937 0
M  V30 9031 H 859.151 -3.52712 1.70591 0
M  V30 9032 H 860.848 -3.42597 2.08395 0
M  V30 9033 H 857.438 -2.70602 3.32374 0
M  V30 9034 H 861.622 -2.506 4.28384 0
M  V30 9035 H 856.878 -2.26956 5.67715 0
M  V30 9036 H 861.052 -2.08001 6.64612 0
M  V30 9037 H 858.679 -1.9566 7.34589 0
M  V30 9038 N 860.254 -1.20106 -1.0204 0
M  V30 9039 C 861.484 -1.0329 -1.78927 0
M  V30 9040 C 861.892 0.421115 -1.84454 0
M  V30 9041 O 861.235 1.30422 -1.29367 0
M  V30 9042 C 861.297 -1.53627 -3.25021 0
M  V30 9043 C 860.961 -3.01869 -3.4311 0
M  V30 9044 C 861.958 -3.9956 -3.32638 0
M  V30 9045 C 859.643 -3.40746 -3.6905 0
M  V30 9046 C 861.637 -5.34119 -3.47844 0
M  V30 9047 C 859.324 -4.75462 -3.839 0
M  V30 9048 C 860.322 -5.71957 -3.73302 0
M  V30 9049 O 860.01 -7.04231 -3.87703 0
M  V30 9050 H 859.742 -0.363962 -0.569656 0
M  V30 9051 H 862.296 -1.59551 -1.29354 0
M  V30 9052 H 860.526 -0.917481 -3.75658 0
M  V30 9053 H 862.215 -1.32889 -3.8353 0
M  V30 9054 H 862.981 -3.70869 -3.12539 0
M  V30 9055 H 858.86 -2.66182 -3.76388 0
M  V30 9056 H 862.404 -6.09421 -3.39488 0
M  V30 9057 H 858.301 -5.03844 -4.03499 0
M  V30 9058 H 859.069 -7.11425 -4.04744 0
M  V30 9059 N 861.732 1.21287 -1.00634 0
M  V30 9060 C 862.695 2.21927 -0.572821 0
M  V30 9061 C 863.695 1.5691 0.351541 0
M  V30 9062 O 864.885 1.73623 0.141643 0
M  V30 9063 C 862.017 3.40501 0.164932 0
M  V30 9064 H 863.21 2.61795 -1.463 0
M  V30 9065 H 860.763 1.34571 -0.794998 0
M  V30 9066 H 861.498 3.06123 1.07049 0
M  V30 9067 H 861.283 3.88912 -0.498962 0
M  V30 9068 H 862.773 4.15103 0.455945 0
M  V30 9069 N 863.21 0.781244 1.36873 0
M  V30 9070 C 864.621 0.414093 1.8205 0
M  V30 9071 C 864.972 -1.06098 1.65039 0
M  V30 9072 O 864.097 -1.82251 1.16677 0
M  V30 9073 C 864.692 0.744837 3.30511 0
M  V30 9074 C 863.251 0.430621 3.73929 0
M  V30 9075 C 862.398 0.983746 2.59264 0
M  V30 9076 H 865.349 0.975091 1.2521 0
M  V30 9077 H 865.37 0.032936 3.80486 0
M  V30 9078 H 864.882 1.81847 3.42861 0
M  V30 9079 H 862.983 -0.635308 3.67144 0
M  V30 9080 H 863.096 0.945514 4.69677 0
M  V30 9081 H 861.46 0.407433 2.5142 0
M  V30 9082 H 862.243 2.06297 2.74402 0
M  V30 9083 N 864.689 -1.48329 0.532571 0
M  V30 9084 C 865.599 -2.33445 -0.232546 0
M  V30 9085 C 866.615 -1.46651 -0.93645 0
M  V30 9086 O 867.791 -1.79627 -0.910834 0
M  V30 9087 C 864.856 -3.22824 -1.26434 0
M  V30 9088 C 863.917 -4.25492 -0.570511 0
M  V30 9089 C 863.15 -5.10601 -1.55315 0
M  V30 9090 O 863.373 -4.97733 -2.78599 0
M  V30 9091 O 862.307 -5.91927 -1.09112 0
M  V30 9092 H 866.133 -3.00119 0.464988 0
M  V30 9093 H 863.718 -1.46489 0.293462 0
M  V30 9094 H 865.6 -3.78103 -1.86055 0
M  V30 9095 H 864.275 -2.58807 -1.94424 0
M  V30 9096 H 863.182 -3.74041 0.0662587 0
M  V30 9097 H 864.515 -4.92154 0.0674904 0
M  V30 9098 N 866.167 -0.267825 -1.55308 0
M  V30 9099 C 867.097 0.616585 -2.25212 0
M  V30 9100 C 868.078 1.16472 -1.23969 0
M  V30 9101 O 869.263 1.20021 -1.52672 0
M  V30 9102 C 866.393 1.80412 -2.96764 0
M  V30 9103 C 865.347 1.38784 -4.04874 0
M  V30 9104 C 864.673 2.65789 -4.63961 0
M  V30 9105 C 865.973 0.543415 -5.19465 0
M  V30 9106 H 867.667 0.0336257 -2.99381 0
M  V30 9107 H 865.213 0.0147328 -1.43992 0
M  V30 9108 H 867.166 2.42866 -3.44375 0
M  V30 9109 H 865.89 2.4128 -2.20118 0
M  V30 9110 H 864.549 0.786541 -3.58063 0
M  V30 9111 H 864.197 3.24899 -3.83992 0
M  V30 9112 H 863.897 2.38651 -5.36954 0
M  V30 9113 H 865.421 3.29104 -5.14318 0
M  V30 9114 H 866.835 1.07277 -5.63174 0
M  V30 9115 H 865.232 0.367219 -5.98975 0
M  V30 9116 H 866.302 -0.439534 -4.82904 0
M  V30 9117 N 867.645 1.57599 0.00500368 0
M  V30 9118 C 868.575 2.11143 0.99705 0
M  V30 9119 C 869.556 1.0194 1.3617 0
M  V30 9120 O 870.741 1.29596 1.44632 0
M  V30 9121 C 867.871 2.61062 2.2905 0
M  V30 9122 C 866.825 3.74745 2.0676 0
M  V30 9123 C 866.151 4.10961 3.42075 0
M  V30 9124 C 867.451 5.02222 1.43424 0
M  V30 9125 H 869.145 2.94281 0.551251 0
M  V30 9126 H 866.691 1.41565 0.263715 0
M  V30 9127 H 868.644 2.97146 2.98801 0
M  V30 9128 H 867.368 1.75038 2.75734 0
M  V30 9129 H 866.027 3.39047 1.39436 0
M  V30 9130 H 865.675 3.21968 3.86453 0
M  V30 9131 H 865.375 4.87549 3.27979 0
M  V30 9132 H 866.899 4.49599 4.1315 0
M  V30 9133 H 868.313 5.36109 2.03125 0
M  V30 9134 H 866.71 5.83581 1.39831 0
M  V30 9135 H 867.78 4.83224 0.40285 0
M  V30 9136 N 869.123 -0.277682 1.55134 0
M  V30 9137 C 870.37 -1.0099 1.7552 0
M  V30 9138 C 870.698 -1.86452 0.553712 0
M  V30 9139 O 869.953 -1.90122 -0.463896 0
M  V30 9140 C 870.252 -1.92599 3.01065 0
M  V30 9141 C 869.918 -1.22926 4.3382 0
M  V30 9142 C 868.58 -1.03659 4.69902 0
M  V30 9143 C 870.932 -0.733071 5.16019 0
M  V30 9144 C 868.26 -0.334933 5.85743 0
M  V30 9145 C 870.612 -0.0450319 6.32584 0
M  V30 9146 C 869.276 0.159393 6.6731 0
M  V30 9147 H 868.546 -0.36955 0.642273 0
M  V30 9148 H 871.193 -0.282611 1.89403 0
M  V30 9149 H 869.498 -2.71934 2.82062 0
M  V30 9150 H 871.195 -2.49367 3.14034 0
M  V30 9151 H 867.785 -1.38933 4.05457 0
M  V30 9152 H 871.969 -0.869565 4.88623 0
M  V30 9153 H 867.225 -0.165783 6.11175 0
M  V30 9154 H 871.399 0.34723 6.95534 0
M  V30 9155 H 869.026 0.70507 7.56923 0
M  V30 9156 N 870.601 -1.47988 -0.541979 0
M  V30 9157 C 871.848 -1.55393 -1.29843 0
M  V30 9158 C 872.176 -0.222668 -1.93221 0
M  V30 9159 O 871.431 0.785936 -1.79225 0
M  V30 9160 C 871.73 -2.63189 -2.41798 0
M  V30 9161 C 871.396 -4.05999 -1.96151 0
M  V30 9162 C 870.058 -4.44872 -1.83419 0
M  V30 9163 C 872.41 -4.95545 -1.61507 0
M  V30 9164 C 869.738 -5.71108 -1.34361 0
M  V30 9165 C 872.09 -6.22259 -1.13915 0
M  V30 9166 C 870.754 -6.59998 -0.997911 0
M  V30 9167 H 870.024 -0.568623 -0.47513 0
M  V30 9168 H 872.671 -1.81654 -0.606142 0
M  V30 9169 H 870.976 -2.30743 -3.16647 0
M  V30 9170 H 872.673 -2.66138 -2.99953 0
M  V30 9171 H 869.263 -3.75294 -2.07008 0
M  V30 9172 H 873.447 -4.662 -1.70209 0
M  V30 9173 H 868.703 -5.99083 -1.22103 0
M  V30 9174 H 872.877 -6.91048 -0.861755 0
M  V30 9175 H 870.504 -7.57704 -0.615561 0
M  V30 9176 N 872.079 0.78992 -1.36375 0
M  V30 9177 C 873.042 1.88414 -1.30509 0
M  V30 9178 C 874.042 1.59384 -0.2129 0
M  V30 9179 O 875.232 1.67805 -0.467651 0
M  V30 9180 C 872.364 3.25188 -1.02302 0
M  V30 9181 H 873.557 1.95031 -2.27822 0
M  V30 9182 H 871.11 0.987664 -1.2114 0
M  V30 9183 H 871.845 3.24254 -0.0544486 0
M  V30 9184 H 871.63 3.47647 -1.81338 0
M  V30 9185 H 873.12 4.05252 -1.00801 0
M  V30 9186 N 873.557 1.20646 1.01402 0
M  V30 9187 C 874.504 0.957618 2.09996 0
M  V30 9188 C 875.474 -0.113115 1.65714 0
M  V30 9189 O 876.659 0.032142 1.90773 0
M  V30 9190 C 873.799 0.5186 3.41181 0
M  V30 9191 C 872.912 1.65777 3.98926 0
M  V30 9192 C 872.047 1.16881 5.18182 0
M  V30 9193 C 871.086 2.2809 5.68015 0
M  V30 9194 N 870.223 1.80392 6.7853 0
M  V30 9195 H 875.063 1.88732 2.30617 0
M  V30 9196 H 872.6 0.940703 1.13089 0
M  V30 9197 H 874.558 0.245367 4.16478 0
M  V30 9198 H 873.188 -0.3741 3.20625 0
M  V30 9199 H 872.24 2.04586 3.207 0
M  V30 9200 H 873.552 2.49507 4.31912 0
M  V30 9201 H 872.706 0.851694 6.00692 0
M  V30 9202 H 871.445 0.301434 4.86768 0
M  V30 9203 H 870.45 2.60614 4.84108 0
M  V30 9204 H 871.675 3.15308 6.01463 0
M  V30 9205 H 869.621 0.959856 6.4894 0
M  V30 9206 H 869.538 2.57701 7.10722 0
M  V30 9207 H 870.806 1.51688 7.64598 0
M  V30 9208 N 875.035 -1.20752 1.01276 0
M  V30 9209 C 876.451 -1.42084 0.726934 0
M  V30 9210 C 876.651 -1.89138 -0.694907 0
M  V30 9211 O 875.707 -2.05783 -1.4632 0
M  V30 9212 C 877.02 -2.44575 1.74938 0
M  V30 9213 C 878.568 -2.58347 1.76708 0
M  V30 9214 C 879.043 -3.64078 2.77869 0
M  V30 9215 N 880.534 -3.71558 2.76585 0
M  V30 9216 C 881.269 -4.53016 3.51517 0
M  V30 9217 N 880.765 -5.38309 4.36114 0
M  V30 9218 N 882.558 -4.47512 3.40132 0
M  V30 9219 H 874.709 -0.885228 1.93074 0
M  V30 9220 H 876.972 -0.451075 0.833808 0
M  V30 9221 H 876.678 -2.1699 2.76782 0
M  V30 9222 H 876.552 -3.43503 1.55838 0
M  V30 9223 H 878.939 -2.85265 0.755516 0
M  V30 9224 H 879.02 -1.59628 1.99882 0
M  V30 9225 H 878.664 -3.37905 3.79187 0
M  V30 9226 H 878.594 -4.62412 2.51958 0
M  V30 9227 H 881.085 -3.10629 2.15216 0
M  V30 9228 H 881.398 -5.9754 4.90068 0
M  V30 9229 H 879.743 -5.37824 4.40194 0
M  V30 9230 H 882.934 -3.79912 2.73467 0
M  V30 9231 H 883.107 -5.10759 3.98784 0
M  V30 9232 N 876.513 -0.788492 -1.36457 0
M  V30 9233 C 877.743 -0.371825 -2.03227 0
M  V30 9234 C 878.151 1.01627 -1.59589 0
M  V30 9235 O 877.494 1.663 -0.780382 0
M  V30 9236 C 877.556 -0.355179 -3.57741 0
M  V30 9237 C 877.22 -1.69069 -4.24576 0
M  V30 9238 C 878.217 -2.64601 -4.47529 0
M  V30 9239 C 875.902 -1.96973 -4.62068 0
M  V30 9240 C 877.896 -3.86232 -5.07054 0
M  V30 9241 C 875.583 -3.18872 -5.2131 0
M  V30 9242 C 876.581 -4.1332 -5.43742 0
M  V30 9243 O 876.269 -5.3307 -6.0174 0
M  V30 9244 H 876.001 -0.151452 -0.658816 0
M  V30 9245 H 878.555 -1.06827 -1.75434 0
M  V30 9246 H 876.785 0.397753 -3.84649 0
M  V30 9247 H 878.474 0.0366955 -4.05883 0
M  V30 9248 H 879.24 -2.44329 -4.18961 0
M  V30 9249 H 875.119 -1.24277 -4.43933 0
M  V30 9250 H 878.663 -4.59965 -5.24478 0
M  V30 9251 H 874.56 -3.39022 -5.49304 0
M  V30 9252 H 875.328 -5.34121 -6.20207 0
M  V30 9253 N 877.991 1.48044 -0.54043 0
M  V30 9254 C 878.938 2.29781 0.216597 0
M  V30 9255 C 879.908 1.38021 0.924094 0
M  V30 9256 O 881.093 1.66985 0.923078 0
M  V30 9257 C 878.233 3.21623 1.2511 0
M  V30 9258 C 877.346 4.28467 0.551384 0
M  V30 9259 C 876.481 5.07477 1.56972 0
M  V30 9260 C 875.52 6.06113 0.854048 0
M  V30 9261 N 874.657 6.78143 1.81842 0
M  V30 9262 H 879.497 2.94001 -0.486578 0
M  V30 9263 H 877.034 1.44929 -0.251789 0
M  V30 9264 H 878.992 3.73279 1.8633 0
M  V30 9265 H 877.622 2.59305 1.92252 0
M  V30 9266 H 876.674 3.79997 -0.174982 0
M  V30 9267 H 877.986 4.98799 -0.0100542 0
M  V30 9268 H 877.14 5.63199 2.25592 0
M  V30 9269 H 875.879 4.37008 2.16507 0
M  V30 9270 H 874.884 5.49585 0.153838 0
M  V30 9271 H 876.109 6.78584 0.264675 0
M  V30 9272 H 874.055 6.10417 2.40265 0
M  V30 9273 H 873.972 7.44587 1.3087 0
M  V30 9274 H 875.24 7.38448 2.49628 0
M  V30 9275 N 879.47 0.276058 1.55163 0
M  V30 9276 C 880.433 -0.597924 2.21263 0
M  V30 9277 C 881.433 -1.0806 1.19078 0
M  V30 9278 O 882.623 -0.980626 1.43977 0
M  V30 9279 C 879.755 -1.82503 2.87933 0
M  V30 9280 H 880.948 -0.0207769 2.99893 0
M  V30 9281 H 878.501 0.0266823 1.56277 0
M  V30 9282 H 879.236 -2.44266 2.13318 0
M  V30 9283 H 879.021 -1.48683 3.62816 0
M  V30 9284 H 880.511 -2.44651 3.38431 0
M  V30 9285 N 880.948 -1.576 0.00335426 0
M  V30 9286 C 881.911 -2.07576 -0.971838 0
M  V30 9287 C 882.911 -0.985796 -1.27038 0
M  V30 9288 O 884.101 -1.24833 -1.21501 0
M  V30 9289 C 881.233 -2.52003 -2.29581 0
M  V30 9290 H 882.426 -2.95008 -0.539481 0
M  V30 9291 H 879.979 -1.54381 -0.244186 0
M  V30 9292 H 880.714 -1.67825 -2.77498 0
M  V30 9293 H 880.499 -3.31609 -2.09231 0
M  V30 9294 H 881.989 -2.90983 -2.99531 0
M  V30 9295 N 882.426 0.269451 -1.5528 0
M  V30 9296 C 883.673 1.00058 -1.76053 0
M  V30 9297 C 884.001 1.86156 -0.563592 0
M  V30 9298 O 883.256 1.90366 0.453806 0
M  V30 9299 C 883.555 1.91 -3.02082 0
M  V30 9300 C 883.221 1.20623 -4.34466 0
M  V30 9301 C 881.883 1.01165 -4.70446 0
M  V30 9302 C 884.235 0.705695 -5.164 0
M  V30 9303 C 881.563 0.303865 -5.85913 0
M  V30 9304 C 883.915 0.0114838 -6.32599 0
M  V30 9305 C 882.579 -0.19478 -6.67216 0
M  V30 9306 H 881.849 0.366138 -0.644223 0
M  V30 9307 H 884.496 0.272563 -1.8955 0
M  V30 9308 H 882.801 2.70435 -2.835 0
M  V30 9309 H 884.498 2.47698 -3.15352 0
M  V30 9310 H 881.088 1.36781 -4.06188 0
M  V30 9311 H 885.272 0.84364 -4.89077 0
M  V30 9312 H 880.528 0.133368 -6.11255 0
M  V30 9313 H 884.702 -0.384111 -6.9534 0
M  V30 9314 H 882.329 -0.745201 -7.56539 0
M  V30 9315 N 883.904 1.48273 0.534124 0
M  V30 9316 C 885.132 1.59734 1.31501 0
M  V30 9317 C 885.547 0.256047 1.87056 0
M  V30 9318 O 884.904 -0.754086 1.66192 0
M  V30 9319 C 884.955 2.64072 2.46877 0
M  V30 9320 O 884.676 3.92995 1.93613 0
M  V30 9321 C 886.177 2.85933 3.38758 0
M  V30 9322 H 883.397 0.538703 0.40005 0
M  V30 9323 H 885.941 1.9407 0.644762 0
M  V30 9324 H 884.096 2.32606 3.09795 0
M  V30 9325 H 884.51 4.50203 2.69106 0
M  V30 9326 H 885.984 3.62749 4.16073 0
M  V30 9327 H 886.461 1.94603 3.93734 0
M  V30 9328 H 887.067 3.18687 2.81636 0
M  V30 9329 N 885.382 -0.782676 1.36792 0
M  V30 9330 C 886.292 -1.92679 1.33835 0
M  V30 9331 C 887.308 -1.72344 0.23952 0
M  V30 9332 O 888.484 -1.95766 0.473045 0
M  V30 9333 C 885.549 -3.27644 1.1336 0
M  V30 9334 C 884.61 -3.6071 2.32781 0
M  V30 9335 C 883.843 -4.89234 2.13273 0
M  V30 9336 O 884.066 -5.59468 1.11136 0
M  V30 9337 O 883 -5.21112 3.01208 0
M  V30 9338 H 886.826 -1.98124 2.30175 0
M  V30 9339 H 884.411 -0.923887 1.17408 0
M  V30 9340 H 886.293 -4.08394 1.03886 0
M  V30 9341 H 884.968 -3.23076 0.200868 0
M  V30 9342 H 883.875 -2.80238 2.47825 0
M  V30 9343 H 885.208 -3.70008 3.24584 0
M  V30 9344 N 886.86 -1.21182 -1.00761 0
M  V30 9345 C 888.1 -1.03886 -1.76031 0
M  V30 9346 C 888.464 0.420593 -1.87337 0
M  V30 9347 O 889.665 0.713994 -2.59144 0
M  V30 9348 C 887.936 -1.71394 -3.13622 0
M  V30 9349 S 889.495 -1.69319 -4.04816 0
M  V30 9350 H 886.313 -0.372327 -0.605717 0
M  V30 9351 H 888.915 -1.53885 -1.20581 0
M  V30 9352 H 887.619 -2.76773 -3.03026 0
M  V30 9353 H 887.15 -1.21564 -3.74147 0
M  V30 9354 H 889.165 -0.732434 -4.90765 0
M  V30 9355 N 888.338 1.20213 -1.01915 0
M  V30 9356 C 889.578 1.91354 -0.71853 0
M  V30 9357 C 889.942 1.77231 0.738466 0
M  V30 9358 O 891.143 2.42876 1.15172 0
M  V30 9359 C 889.414 3.38552 -1.14529 0
M  V30 9360 S 890.973 4.28011 -0.967037 0
M  V30 9361 H 887.791 0.661015 -0.261879 0
M  V30 9362 H 890.393 1.45394 -1.30694 0
M  V30 9363 H 889.097 3.46354 -2.20153 0
M  V30 9364 H 888.628 3.8954 -0.549766 0
M  V30 9365 H 890.643 4.96035 0.127974 0
M  V30 9366 N 889.816 0.795718 1.36037 0
M  V30 9367 C 890.748 0.156336 2.28666 0
M  V30 9368 C 891.761 -0.638075 1.49775 0
M  V30 9369 O 892.95 -0.472222 1.7214 0
M  V30 9370 C 890.05 -0.801417 3.29288 0
M  V30 9371 C 889.223 -0.0557118 4.37365 0
M  V30 9372 C 888.282 -0.930338 5.1791 0
M  V30 9373 O 887.308 -0.385266 5.67895 0
M  V30 9374 N 888.51 -2.25382 5.34961 0
M  V30 9375 H 891.275 0.952033 2.84177 0
M  V30 9376 H 888.836 0.650189 1.48271 0
M  V30 9377 H 890.828 -1.39051 3.80062 0
M  V30 9378 H 889.398 -1.49796 2.74372 0
M  V30 9379 H 888.618 0.714508 3.87671 0
M  V30 9380 H 889.906 0.458633 5.06729 0
M  V30 9381 H 889.304 -2.72073 4.95977 0
M  V30 9382 H 887.861 -2.79241 5.88955 0
M  V30 9383 N 891.294 -1.47756 0.548274 0
M  V30 9384 C 892.257 -2.28379 -0.193857 0
M  V30 9385 C 893.257 -1.36436 -0.850986 0
M  V30 9386 O 894.447 -1.59154 -0.70822 0
M  V30 9387 C 891.579 -3.15858 -1.28243 0
M  V30 9388 H 892.772 -2.95458 0.514231 0
M  V30 9389 H 890.325 -1.53298 0.304879 0
M  V30 9390 H 891.06 -2.5345 -2.0232 0
M  V30 9391 H 890.845 -3.83512 -0.816148 0
M  V30 9392 H 892.335 -3.76627 -1.80393 0
M  V30 9393 N 892.772 -0.284283 -1.55015 0
M  V30 9394 C 893.735 0.586182 -2.21577 0
M  V30 9395 C 894.735 1.07427 -1.1965 0
M  V30 9396 O 895.925 0.972977 -1.44495 0
M  V30 9397 C 893.057 1.80973 -2.88897 0
M  V30 9398 H 894.25 0.00487253 -2.999 0
M  V30 9399 H 891.803 -0.0349696 -1.56261 0
M  V30 9400 H 892.538 2.43131 -2.14611 0
M  V30 9401 H 892.323 1.46757 -3.636 0
M  V30 9402 H 893.813 2.42853 -3.39724 0
M  V30 9403 N 894.251 1.57596 -0.0117121 0
M  V30 9404 C 895.528 1.82323 0.708356 0
M  V30 9405 C 895.908 0.891947 1.91331 0
M  V30 9406 O 895.256 -0.0565984 2.2843 0
M  V30 9407 C 895.466 3.31111 1.10303 0
M  V30 9408 C 896.814 3.97147 1.50199 0
M  V30 9409 O 897.838 3.35503 1.1965 0
M  V30 9410 O 896.697 5.0576 2.07049 0
M  V30 9411 H 893.791 0.751173 0.345931 0
M  V30 9412 H 896.337 1.69657 -0.0380632 0
M  V30 9413 H 895.109 3.90534 0.24467 0
M  V30 9414 H 894.732 3.48818 1.90818 0
M  V30 9415 N 895.729 -0.261212 1.5542 0
M  V30 9416 C 896.676 -1.32315 1.89107 0
M  V30 9417 C 897.646 -1.48517 0.743767 0
M  V30 9418 O 898.831 -1.62733 0.996123 0
M  V30 9419 C 895.971 -2.67626 2.17877 0
M  V30 9420 C 895.084 -2.59549 3.45338 0
M  V30 9421 C 894.219 -3.87118 3.63748 0
M  V30 9422 C 893.258 -3.736 4.8486 0
M  V30 9423 N 892.395 -4.93029 4.99867 0
M  V30 9424 H 897.235 -1.02886 2.79675 0
M  V30 9425 H 894.772 -0.496812 1.38456 0
M  V30 9426 H 896.73 -3.4637 2.32559 0
M  V30 9427 H 895.36 -2.95232 1.30529 0
M  V30 9428 H 894.412 -1.72452 3.39064 0
M  V30 9429 H 895.724 -2.45465 4.34222 0
M  V30 9430 H 894.878 -4.74305 3.78312 0
M  V30 9431 H 893.617 -4.04084 2.73071 0
M  V30 9432 H 892.622 -2.84797 4.70288 0
M  V30 9433 H 893.847 -3.58143 5.76984 0
M  V30 9434 H 891.793 -5.10383 4.12123 0
M  V30 9435 H 891.71 -4.81521 5.82815 0
M  V30 9436 H 892.978 -5.81754 5.18828 0
M  V30 9437 N 897.207 -1.48554 -0.526253 0
M  V30 9438 C 898.17 -1.62868 -1.61266 0
M  V30 9439 C 899.17 -0.501762 -1.52771 0
M  V30 9440 O 900.36 -0.76764 -1.56374 0
M  V30 9441 C 897.492 -1.60238 -3.00893 0
M  V30 9442 H 898.685 -2.59742 -1.49913 0
M  V30 9443 H 896.238 -1.37207 -0.748595 0
M  V30 9444 H 896.973 -0.648545 -3.17749 0
M  V30 9445 H 896.758 -2.42054 -3.08468 0
M  V30 9446 H 898.248 -1.73455 -3.79872 0
M  V30 9447 N 898.685 0.775411 -1.37205 0
M  V30 9448 C 899.648 1.8702 -1.325 0
M  V30 9449 C 900.648 1.5915 -0.229793 0
M  V30 9450 O 901.838 1.673 -0.485423 0
M  V30 9451 C 898.97 3.24085 -1.05745 0
M  V30 9452 H 900.163 1.92604 -2.29878 0
M  V30 9453 H 897.716 0.97476 -1.22181 0
M  V30 9454 H 898.451 3.24178 -0.0888371 0
M  V30 9455 H 898.236 3.45705 -1.85016 0
M  V30 9456 H 899.726 4.0416 -1.05094 0
M  V30 9457 N 900.163 1.21714 1.00117 0
M  V30 9458 C 901.403 1.04818 1.75478 0
M  V30 9459 C 901.767 -0.410653 1.87557 0
M  V30 9460 O 902.968 -0.700241 2.59519 0
M  V30 9461 C 901.239 1.73055 3.12709 0
M  V30 9462 S 902.798 1.71464 4.03913 0
M  V30 9463 H 899.616 0.375534 0.603734 0
M  V30 9464 H 902.218 1.54522 1.19763 0
M  V30 9465 H 900.922 2.78376 3.01554 0
M  V30 9466 H 900.453 1.23546 3.73497 0
M  V30 9467 H 902.468 0.75845 4.90369 0
M  V30 9468 N 901.641 -1.19671 1.02551 0
M  V30 9469 C 902.571 -2.25009 0.623965 0
M  V30 9470 C 903.552 -1.66129 -0.36538 0
M  V30 9471 O 904.737 -1.92599 -0.248842 0
M  V30 9472 C 901.867 -3.47287 -0.0294869 0
M  V30 9473 C 900.821 -4.18818 0.881781 0
M  V30 9474 C 900.147 -5.34618 0.0936189 0
M  V30 9475 C 901.447 -4.73986 2.19396 0
M  V30 9476 H 903.141 -2.58851 1.50454 0
M  V30 9477 H 900.687 -1.24425 0.724872 0
M  V30 9478 H 902.64 -4.20168 -0.322016 0
M  V30 9479 H 901.364 -3.12635 -0.944838 0
M  V30 9480 H 900.023 -3.47815 1.15845 0
M  V30 9481 H 899.671 -4.9621 -0.823661 0
M  V30 9482 H 899.371 -5.83409 0.700568 0
M  V30 9483 H 900.895 -6.10297 -0.192249 0
M  V30 9484 H 902.309 -5.38639 1.96319 0
M  V30 9485 H 900.706 -5.3325 2.75254 0
M  V30 9486 H 901.776 -3.92238 2.85092 0
M  V30 9487 N 903.119 -0.802921 -1.35613 0
M  V30 9488 C 904.049 -0.225131 -2.32412 0
M  V30 9489 C 905.03 0.647383 -1.57299 0
M  V30 9490 O 906.215 0.578414 -1.85386 0
M  V30 9491 C 903.345 0.630085 -3.41537 0
M  V30 9492 C 902.299 -0.143635 -4.27759 0
M  V30 9493 C 901.625 0.833046 -5.28171 0
M  V30 9494 C 902.925 -1.34054 -5.04804 0
M  V30 9495 H 904.619 -1.03385 -2.80984 0
M  V30 9496 H 902.165 -0.498593 -1.35093 0
M  V30 9497 H 904.118 1.04433 -4.08254 0
M  V30 9498 H 902.842 1.47165 -2.91565 0
M  V30 9499 H 901.501 -0.539015 -3.62616 0
M  V30 9500 H 901.149 1.67001 -4.74468 0
M  V30 9501 H 900.849 0.319697 -5.8673 0
M  V30 9502 H 902.373 1.24558 -5.97761 0
M  V30 9503 H 903.787 -1.00136 -5.64487 0
M  V30 9504 H 902.184 -1.78812 -5.72841 0
M  V30 9505 H 903.254 -2.12906 -4.35659 0
M  V30 9506 N 904.597 1.47463 -0.556102 0
M  V30 9507 C 906.008 1.86298 -0.122429 0
M  V30 9508 C 906.359 1.46285 1.30749 0
M  V30 9509 O 905.484 0.865405 1.98342 0
M  V30 9510 C 906.079 3.38115 -0.215407 0
M  V30 9511 C 904.638 3.76046 0.163223 0
M  V30 9512 C 903.785 2.71515 -0.563466 0
M  V30 9513 H 906.736 1.38996 -0.765888 0
M  V30 9514 H 906.757 3.76263 0.566271 0
M  V30 9515 H 906.269 3.67207 -1.25622 0
M  V30 9516 H 904.37 3.5257 1.20519 0
M  V30 9517 H 904.483 4.78705 -0.194568 0
M  V30 9518 H 902.847 2.54699 -0.00667879 0
M  V30 9519 H 903.63 3.03449 -1.60542 0
M  V30 9520 N 906.075 0.2925 1.54862 0
M  V30 9521 C 907.022 -0.587365 2.23201 0
M  V30 9522 C 907.992 -1.13623 1.21157 0
M  V30 9523 O 909.177 -1.18233 1.49752 0
M  V30 9524 C 906.317 -1.75745 2.96998 0
M  V30 9525 C 905.43 -1.24078 4.13798 0
M  V30 9526 C 904.565 -2.37405 4.75197 0
M  V30 9527 C 903.604 -1.82829 5.84157 0
M  V30 9528 N 902.741 -2.89696 6.39547 0
M  V30 9529 H 907.581 0.00202207 2.98 0
M  V30 9530 H 905.118 0.012766 1.47094 0
M  V30 9531 H 907.076 -2.44549 3.38011 0
M  V30 9532 H 905.706 -2.3186 2.24591 0
M  V30 9533 H 904.758 -0.445268 3.77785 0
M  V30 9534 H 906.07 -0.801186 4.92324 0
M  V30 9535 H 905.224 -3.14172 5.19019 0
M  V30 9536 H 903.963 -2.84688 3.95985 0
M  V30 9537 H 902.968 -1.04548 5.39768 0
M  V30 9538 H 904.193 -1.36461 6.65248 0
M  V30 9539 H 902.139 -3.36328 5.63222 0
M  V30 9540 H 902.056 -2.50206 7.13395 0
M  V30 9541 H 903.324 -3.66386 6.88027 0
M  V30 9542 N 907.553 -1.57587 0.0200696 0
M  V30 9543 C 908.483 -2.12702 -0.963333 0
M  V30 9544 C 909.464 -1.04094 -1.34531 0
M  V30 9545 O 910.649 -1.31881 -1.42552 0
M  V30 9546 C 907.779 -2.64673 -2.24868 0
M  V30 9547 C 906.733 -3.77987 -2.00772 0
M  V30 9548 C 906.059 -4.16351 -3.35494 0
M  V30 9549 C 907.359 -5.0444 -1.35416 0
M  V30 9550 H 909.053 -2.95121 -0.504363 0
M  V30 9551 H 906.599 -1.41966 -0.24116 0
M  V30 9552 H 908.552 -3.01862 -2.94036 0
M  V30 9553 H 907.276 -1.79403 -2.72914 0
M  V30 9554 H 905.935 -3.41223 -1.34025 0
M  V30 9555 H 905.583 -3.28075 -3.81282 0
M  V30 9556 H 905.283 -4.92705 -3.20181 0
M  V30 9557 H 906.807 -4.56115 -4.05945 0
M  V30 9558 H 908.221 -5.39273 -1.94571 0
M  V30 9559 H 906.618 -5.85732 -1.30529 0
M  V30 9560 H 907.688 -4.83803 -0.325923 0
M  V30 9561 N 909.032 0.252966 -1.55557 0
M  V30 9562 C 910.309 1.00432 -1.67847 0
M  V30 9563 C 910.689 2.03587 -0.55816 0
M  V30 9564 O 910.037 2.24239 0.439197 0
M  V30 9565 C 910.247 1.64313 -3.079 0
M  V30 9566 C 911.595 2.14726 -3.66303 0
M  V30 9567 O 912.619 1.74264 -3.10661 0
M  V30 9568 O 911.478 2.89 -4.63833 0
M  V30 9569 H 908.572 0.467102 -0.682455 0
M  V30 9570 H 911.118 0.247233 -1.67889 0
M  V30 9571 H 909.89 0.896681 -3.80888 0
M  V30 9572 H 909.513 2.46657 -3.11843 0
M  V30 9573 N 910.51 1.48831 0.518367 0
M  V30 9574 C 911.42 1.6692 1.64848 0
M  V30 9575 C 912.436 0.551711 1.65022 0
M  V30 9576 O 913.612 0.824251 1.83761 0
M  V30 9577 C 910.677 1.71559 3.01278 0
M  V30 9578 C 909.738 2.9502 3.11868 0
M  V30 9579 C 908.971 2.99428 4.4179 0
M  V30 9580 O 909.194 2.11914 5.29574 0
M  V30 9581 O 908.128 3.91719 4.5699 0
M  V30 9582 H 911.954 2.62623 1.52521 0
M  V30 9583 H 909.539 1.32368 0.692749 0
M  V30 9584 H 911.421 1.77064 3.82396 0
M  V30 9585 H 910.096 0.790316 3.13904 0
M  V30 9586 H 909.003 2.95042 2.30003 0
M  V30 9587 H 910.336 3.8697 3.04163 0
M  V30 9588 N 911.988 -0.768124 1.37614 0
M  V30 9589 C 912.918 -1.89537 1.36374 0
M  V30 9590 C 913.899 -1.68513 0.231803 0
M  V30 9591 O 915.084 -1.89318 0.432705 0
M  V30 9592 C 912.214 -3.26871 1.17358 0
M  V30 9593 C 911.168 -3.62466 2.27602 0
M  V30 9594 C 910.494 -4.9838 1.93705 0
M  V30 9595 C 911.794 -3.68841 3.69802 0
M  V30 9596 H 913.488 -1.90832 2.30702 0
M  V30 9597 H 911.034 -0.91672 1.11051 0
M  V30 9598 H 912.987 -4.05371 1.15119 0
M  V30 9599 H 911.711 -3.26018 0.194865 0
M  V30 9600 H 910.37 -2.86276 2.29002 0
M  V30 9601 H 910.018 -4.94071 0.943539 0
M  V30 9602 H 909.718 -5.23165 2.6753 0
M  V30 9603 H 911.242 -5.79276 1.93059 0
M  V30 9604 H 912.656 -4.37485 3.70513 0
M  V30 9605 H 911.053 -4.05126 4.42711 0
M  V30 9606 H 912.123 -2.69415 4.03167 0
M  V30 9607 N 913.466 -1.22244 -0.994698 0
M  V30 9608 C 914.882 -0.982006 -1.25813 0
M  V30 9609 C 915.082 0.325488 -1.98854 0
M  V30 9610 O 914.138 1.04857 -2.29698 0
M  V30 9611 C 915.451 -2.1795 -2.07167 0
M  V30 9612 C 916.999 -2.22287 -2.20358 0
M  V30 9613 C 917.474 -3.41583 -3.05098 0
M  V30 9614 N 918.965 -3.41734 -3.12686 0
M  V30 9615 C 919.7 -4.30692 -3.78539 0
M  V30 9616 N 919.196 -5.29865 -4.46335 0
M  V30 9617 N 920.989 -4.18473 -3.75283 0
M  V30 9618 H 913.14 -2.0631 -0.504963 0
M  V30 9619 H 915.403 -0.90395 -0.285618 0
M  V30 9620 H 915.109 -3.12758 -1.60858 0
M  V30 9621 H 914.983 -2.17862 -3.07922 0
M  V30 9622 H 917.37 -1.28028 -2.65881 0
M  V30 9623 H 917.451 -2.26414 -1.19039 0
M  V30 9624 H 917.095 -4.36141 -2.60275 0
M  V30 9625 H 917.025 -3.34695 -4.06555 0
M  V30 9626 H 919.516 -2.69969 -2.64433 0
M  V30 9627 H 919.829 -5.94027 -4.9432 0
M  V30 9628 H 918.174 -5.3378 -4.45089 0
M  V30 9629 H 921.365 -3.40249 -3.21478 0
M  V30 9630 H 921.538 -4.88007 -4.26326 0
M  V30 9631 N 914.944 1.19125 -1.03184 0
M  V30 9632 C 916.221 1.84674 -0.644574 0
M  V30 9633 C 916.601 1.92042 0.876534 0
M  V30 9634 O 915.949 1.43965 1.77444 0
M  V30 9635 C 916.159 3.23477 -1.3101 0
M  V30 9636 C 917.507 3.99608 -1.43524 0
M  V30 9637 O 918.531 3.32886 -1.2675 0
M  V30 9638 O 917.39 5.19132 -1.70776 0
M  V30 9639 H 914.484 0.795968 -0.22442 0
M  V30 9640 H 917.03 1.2659 -1.13018 0
M  V30 9641 H 915.802 3.12967 -2.34878 0
M  V30 9642 H 915.425 3.89209 -0.812547 0
M  V30 9643 N 916.422 0.810101 1.35185 0
M  V30 9644 C 917.332 0.224565 2.33523 0
M  V30 9645 C 918.348 -0.634287 1.62027 0
M  V30 9646 O 919.524 -0.545211 1.9388 0
M  V30 9647 C 916.589 -0.614319 3.41214 0
M  V30 9648 C 915.65 0.265435 4.28479 0
M  V30 9649 C 914.883 -0.533506 5.31027 0
M  V30 9650 O 915.106 -1.7679 5.42311 0
M  V30 9651 O 914.04 0.0774573 6.0185 0
M  V30 9652 H 917.866 1.03815 2.85405 0
M  V30 9653 H 915.451 0.571964 1.38018 0
M  V30 9654 H 917.333 -1.09201 4.07005 0
M  V30 9655 H 916.008 -1.40545 2.91597 0
M  V30 9656 H 914.915 0.790343 3.65656 0
M  V30 9657 H 916.248 1.0206 4.81503 0
M  V30 9658 N 917.9 -1.47166 0.563914 0
M  V30 9659 C 919.148 -2.02056 0.0422873 0
M  V30 9660 C 919.469 -1.43992 -1.31497 0
M  V30 9661 O 918.739 -0.617578 -1.85911 0
M  V30 9662 H 917.319 -0.746893 0.0126427 0
M  V30 9663 H 919.981 -1.80492 0.735441 0
M  V30 9664 H 919.077 -3.12073 -0.0408044 0
M  V30 9665 N 919.378 -0.300708 -1.54705 0
M  V30 9666 C 920.325 0.57552 -2.23509 0
M  V30 9667 C 921.295 1.12979 -1.21758 0
M  V30 9668 O 922.48 1.17437 -1.50377 0
M  V30 9669 C 919.62 1.74167 -2.97926 0
M  V30 9670 C 918.733 1.21882 -4.1445 0
M  V30 9671 C 917.868 2.34881 -4.7645 0
M  V30 9672 C 916.907 1.79729 -5.85119 0
M  V30 9673 N 916.044 2.863 -6.41075 0
M  V30 9674 H 920.884 -0.0178257 -2.97995 0
M  V30 9675 H 918.421 -0.0205666 -1.47086 0
M  V30 9676 H 920.379 2.42753 -3.39303 0
M  V30 9677 H 919.009 2.30665 -2.25817 0
M  V30 9678 H 918.061 0.425227 -3.78016 0
M  V30 9679 H 919.373 0.775065 -4.92741 0
M  V30 9680 H 918.527 3.11415 -5.20678 0
M  V30 9681 H 917.266 2.82584 -3.97489 0
M  V30 9682 H 916.271 1.01684 -5.40315 0
M  V30 9683 H 917.496 1.32931 -6.65963 0
M  V30 9684 H 915.442 3.33337 -5.64998 0
M  V30 9685 H 915.359 2.46419 -7.14712 0
M  V30 9686 H 916.627 3.62732 -6.89961 0
M  V30 9687 N 920.856 1.57574 -0.0284266 0
M  V30 9688 C 921.819 2.09096 0.938691 0
M  V30 9689 C 922.819 1.00588 1.25454 0
M  V30 9690 O 924.009 1.2675 1.19499 0
M  V30 9691 C 921.141 2.55624 2.25542 0
M  V30 9692 H 922.334 2.95829 0.49248 0
M  V30 9693 H 919.887 1.5475 0.219594 0
M  V30 9694 H 920.622 1.72218 2.74793 0
M  V30 9695 H 920.407 3.34896 2.03929 0
M  V30 9696 H 921.897 2.95712 2.94863 0
M  V30 9697 N 922.334 -0.244713 1.55689 0
M  V30 9698 C 923.559 -0.994157 1.8202 0
M  V30 9699 C 923.984 -1.78079 0.60577 0
M  V30 9700 O 923.342 -1.75748 -0.445221 0
M  V30 9701 C 923.39 -1.90599 3.06111 0
M  V30 9702 O 922.494 -2.99804 2.8318 0
M  V30 9703 H 921.835 -0.282767 0.600782 0
M  V30 9704 H 924.365 -0.26504 2.02876 0
M  V30 9705 H 924.375 -2.32023 3.35603 0
M  V30 9706 H 923.05 -1.32763 3.9414 0
M  V30 9707 H 921.627 -2.62493 2.64862 0
M  V30 9708 N 923.813 -1.49104 -0.510467 0
M  V30 9709 C 925.038 -1.62068 -1.29417 0
M  V30 9710 C 925.463 -0.288432 -1.85875 0
M  V30 9711 O 924.821 0.742667 -1.65391 0
M  V30 9712 C 924.869 -2.68506 -2.40701 0
M  V30 9713 O 923.973 -2.27021 -3.4429 0
M  V30 9714 H 923.314 -0.542778 -0.382476 0
M  V30 9715 H 925.844 -1.95228 -0.612154 0
M  V30 9716 H 925.854 -2.90383 -2.86604 0
M  V30 9717 H 924.529 -3.65216 -1.98973 0
M  V30 9718 H 923.106 -2.15436 -3.04371 0
M  V30 9719 N 925.291 0.760815 -1.38019 0
M  V30 9720 C 926.254 1.85604 -1.34476 0
M  V30 9721 C 927.254 1.58897 -0.24666 0
M  V30 9722 O 928.444 1.66776 -0.50314 0
M  V30 9723 C 925.576 3.22945 -1.09176 0
M  V30 9724 H 926.769 1.90155 -2.31908 0
M  V30 9725 H 924.322 0.961746 -1.23208 0
M  V30 9726 H 925.057 3.24066 -0.123216 0
M  V30 9727 H 924.842 3.43723 -1.88672 0
M  V30 9728 H 926.332 4.03022 -1.09375 0
M  V30 9729 N 926.769 1.22769 0.988202 0
M  V30 9730 C 927.716 1.00195 2.07917 0
M  V30 9731 C 928.686 -0.0779391 1.65917 0
M  V30 9732 O 929.871 0.0726005 1.90662 0
M  V30 9733 C 927.011 0.590853 3.40004 0
M  V30 9734 C 926.124 1.74202 3.9532 0
M  V30 9735 C 925.259 1.27846 5.15586 0
M  V30 9736 C 924.298 2.40087 5.63049 0
M  V30 9737 N 923.435 1.94744 6.74551 0
M  V30 9738 H 928.275 1.93581 2.26562 0
M  V30 9739 H 925.812 0.96448 1.11068 0
M  V30 9740 H 927.77 0.333653 4.15864 0
M  V30 9741 H 926.4 -0.306007 3.21346 0
M  V30 9742 H 925.452 2.11342 3.16289 0
M  V30 9743 H 926.764 2.58612 4.26522 0
M  V30 9744 H 925.918 0.978919 5.9875 0
M  V30 9745 H 924.657 0.404617 4.86019 0
M  V30 9746 H 923.662 2.70824 4.78471 0
M  V30 9747 H 924.887 3.27995 5.9464 0
M  V30 9748 H 922.833 1.09729 6.46758 0
M  V30 9749 H 922.75 2.72718 7.05096 0
M  V30 9750 H 924.018 1.67873 7.61209 0
M  V30 9751 N 928.247 -1.18576 1.03814 0
M  V30 9752 C 929.179 -2.21607 0.585055 0
M  V30 9753 C 930.192 -1.59125 -0.343963 0
M  V30 9754 O 931.381 -1.77959 -0.138882 0
M  V30 9755 C 928.481 -3.38495 -0.165602 0
M  V30 9756 C 927.654 -4.30557 0.770662 0
M  V30 9757 C 926.713 -5.26161 0.0637534 0
M  V30 9758 O 925.739 -5.64961 0.693359 0
M  V30 9759 N 926.941 -5.67882 -1.20377 0
M  V30 9760 H 929.706 -2.61104 1.47121 0
M  V30 9761 H 927.267 -1.33336 0.918316 0
M  V30 9762 H 929.259 -3.99474 -0.648292 0
M  V30 9763 H 927.829 -2.97711 -0.953268 0
M  V30 9764 H 927.049 -3.67221 1.43326 0
M  V30 9765 H 928.337 -4.88969 1.40667 0
M  V30 9766 H 927.735 -5.38409 -1.73586 0
M  V30 9767 H 926.292 -6.31069 -1.63079 0
M  V30 9768 N 929.725 -0.817259 -1.34754 0
M  V30 9769 C 931.141 -0.502309 -1.51489 0
M  V30 9770 C 931.341 0.974568 -1.76364 0
M  V30 9771 O 930.397 1.75924 -1.81127 0
M  V30 9772 C 931.71 -1.35693 -2.68343 0
M  V30 9773 C 933.258 -1.35347 -2.82224 0
M  V30 9774 C 933.733 -2.19244 -4.02114 0
M  V30 9775 N 935.224 -2.16837 -4.09311 0
M  V30 9776 C 935.959 -2.78505 -5.01221 0
M  V30 9777 N 935.455 -3.4914 -5.98392 0
M  V30 9778 N 937.248 -2.68089 -4.94049 0
M  V30 9779 H 929.399 -1.77359 -1.16866 0
M  V30 9780 H 931.662 -0.755476 -0.572678 0
M  V30 9781 H 931.368 -2.40548 -2.56573 0
M  V30 9782 H 931.242 -1.01764 -3.63213 0
M  V30 9783 H 933.629 -0.312727 -2.93438 0
M  V30 9784 H 933.71 -1.7327 -1.88179 0
M  V30 9785 H 933.354 -3.23365 -3.9166 0
M  V30 9786 H 933.284 -1.78675 -4.95361 0
M  V30 9787 H 935.775 -1.65452 -3.39756 0
M  V30 9788 H 936.088 -3.93455 -6.65141 0
M  V30 9789 H 934.433 -3.53246 -5.98533 0
M  V30 9790 H 937.624 -2.12485 -4.17094 0
M  V30 9791 H 937.797 -3.16436 -5.65484 0
M  V30 9792 N 931.203 1.46865 -0.571711 0
M  V30 9793 C 932.133 2.3298 0.155795 0
M  V30 9794 C 933.114 1.44678 0.894553 0
M  V30 9795 O 934.299 1.73513 0.872176 0
M  V30 9796 C 931.429 3.26745 1.17708 0
M  V30 9797 C 930.383 4.24401 0.553863 0
M  V30 9798 C 929.709 5.07595 1.68083 0
M  V30 9799 C 931.009 5.19884 -0.501827 0
M  V30 9800 H 932.703 2.94056 -0.563176 0
M  V30 9801 H 930.249 1.41402 -0.27228 0
M  V30 9802 H 932.202 3.85838 1.6943 0
M  V30 9803 H 930.926 2.63753 1.92618 0
M  V30 9804 H 929.585 3.66554 0.057815 0
M  V30 9805 H 929.233 4.40996 2.41933 0
M  V30 9806 H 928.933 5.73722 1.26953 0
M  V30 9807 H 930.457 5.6955 2.20103 0
M  V30 9808 H 931.871 5.73257 -0.0701057 0
M  V30 9809 H 930.268 5.94293 -0.832815 0
M  V30 9810 H 931.338 4.64482 -1.39229 0
M  V30 9811 N 932.681 0.308908 1.54543 0
M  V30 9812 C 933.628 -0.563659 2.23811 0
M  V30 9813 C 934.598 -1.12332 1.22355 0
M  V30 9814 O 935.783 -1.16638 1.50997 0
M  V30 9815 C 932.923 -1.72585 2.98845 0
M  V30 9816 C 932.036 -1.19682 4.1509 0
M  V30 9817 C 931.171 -2.32351 4.77688 0
M  V30 9818 C 930.21 -1.76623 5.86064 0
M  V30 9819 N 929.347 -2.82896 6.42584 0
M  V30 9820 H 934.187 0.0336288 2.97981 0
M  V30 9821 H 931.724 0.0283666 1.47073 0
M  V30 9822 H 933.682 -2.40951 3.40586 0
M  V30 9823 H 932.312 -2.29464 2.27037 0
M  V30 9824 H 931.364 -0.405173 3.78236 0
M  V30 9825 H 932.676 -0.748923 4.93146 0
M  V30 9826 H 931.83 -3.0865 5.22322 0
M  V30 9827 H 930.569 -2.80472 3.98982 0
M  V30 9828 H 929.574 -0.988171 5.40847 0
M  V30 9829 H 930.799 -1.29398 6.66658 0
M  V30 9830 H 928.745 -3.30336 5.66758 0
M  V30 9831 H 928.662 -2.42626 7.16009 0
M  V30 9832 H 929.93 -3.59068 6.91875 0
M  V30 9833 N 934.159 -1.57557 0.0367827 0
M  V30 9834 C 935.399 -1.93981 -0.644252 0
M  V30 9835 C 935.763 -0.913982 -1.6885 0
M  V30 9836 O 936.964 -1.16468 -2.42257 0
M  V30 9837 C 935.235 -3.35281 -1.23779 0
M  V30 9838 S 936.794 -3.93643 -1.93883 0
M  V30 9839 H 933.612 -0.678683 -0.21192 0
M  V30 9840 H 936.214 -1.95232 0.102281 0
M  V30 9841 H 934.918 -4.07752 -0.465451 0
M  V30 9842 H 934.449 -3.37492 -2.02146 0
M  V30 9843 H 936.464 -3.777 -3.21803 0
M  V30 9844 N 935.637 0.236453 -1.55816 0
M  V30 9845 C 936.6 1.27633 -1.90375 0
M  V30 9846 C 937.6 1.40557 -0.781048 0
M  V30 9847 O 938.79 1.39078 -1.04895 0
M  V30 9848 C 935.922 2.65247 -2.14142 0
M  V30 9849 H 937.115 0.982019 -2.83366 0
M  V30 9850 H 934.668 0.476215 -1.48869 0
M  V30 9851 H 935.403 2.99801 -1.23653 0
M  V30 9852 H 935.188 2.57246 -2.95917 0
M  V30 9853 H 936.678 3.40313 -2.42026 0
M  V30 9854 N 937.115 1.49373 0.502552 0
M  V30 9855 C 938.34 1.62752 1.28556 0
M  V30 9856 C 938.765 0.298285 1.8572 0
M  V30 9857 O 938.123 -0.733885 1.65782 0
M  V30 9858 C 938.171 2.69778 2.39274 0
M  V30 9859 O 937.275 2.28843 3.43081 0
M  V30 9860 H 936.616 0.544799 0.379592 0
M  V30 9861 H 939.146 1.9555 0.601792 0
M  V30 9862 H 939.156 2.91899 2.8506 0
M  V30 9863 H 937.831 3.66266 1.97033 0
M  V30 9864 H 936.408 2.17047 3.03224 0
M  V30 9865 N 938.594 -0.753485 1.38421 0
M  V30 9866 C 939.524 -1.8808 1.38377 0
M  V30 9867 C 940.505 -1.68258 0.249664 0
M  V30 9868 O 941.69 -1.88848 0.45276 0
M  V30 9869 C 938.82 -3.25608 1.20818 0
M  V30 9870 C 937.774 -3.60032 2.31433 0
M  V30 9871 C 937.1 -4.96297 1.9898 0
M  V30 9872 C 938.4 -3.64898 3.73694 0
M  V30 9873 H 940.094 -1.88375 2.32713 0
M  V30 9874 H 937.64 -0.90489 1.12017 0
M  V30 9875 H 939.593 -4.04127 1.19412 0
M  V30 9876 H 938.317 -3.25793 0.229433 0
M  V30 9877 H 936.976 -2.83831 2.32025 0
M  V30 9878 H 936.624 -4.93043 0.995889 0
M  V30 9879 H 936.324 -5.20298 2.73063 0
M  V30 9880 H 937.848 -5.77196 1.99193 0
M  V30 9881 H 939.262 -4.33531 3.75132 0
M  V30 9882 H 937.659 -4.00407 4.46983 0
M  V30 9883 H 938.729 -2.65124 4.06002 0
M  V30 9884 N 940.072 -1.23292 -0.981677 0
M  V30 9885 C 941.004 -0.970782 -2.07626 0
M  V30 9886 C 942.017 0.0547506 -1.62708 0
M  V30 9887 O 943.206 -0.180623 -1.77584 0
M  V30 9888 C 940.306 -0.44055 -3.36024 0
M  V30 9889 C 939.479 -1.52595 -4.09919 0
M  V30 9890 C 938.538 -1.00082 -5.16595 0
M  V30 9891 O 937.564 -1.68951 -5.43548 0
M  V30 9892 N 938.766 0.172017 -5.80245 0
M  V30 9893 H 941.531 -1.91316 -2.30691 0
M  V30 9894 H 939.092 -1.14133 -1.14828 0
M  V30 9895 H 941.084 -0.0743111 -4.04632 0
M  V30 9896 H 939.654 0.407211 -3.09936 0
M  V30 9897 H 938.874 -2.06501 -3.35784 0
M  V30 9898 H 940.162 -2.2559 -4.56055 0
M  V30 9899 H 939.56 0.748129 -5.60731 0
M  V30 9900 H 938.117 0.479532 -6.50034 0
M  V30 9901 N 941.55 1.18024 -1.04442 0
M  V30 9902 C 942.497 2.21785 -0.638759 0
M  V30 9903 C 943.467 1.62255 0.355312 0
M  V30 9904 O 944.652 1.89176 0.24844 0
M  V30 9905 C 941.792 3.45098 -0.0118002 0
M  V30 9906 C 940.905 4.1895 -1.05379 0
M  V30 9907 C 940.04 5.2973 -0.394951 0
M  V30 9908 C 939.079 5.95359 -1.42178 0
M  V30 9909 N 938.216 6.97668 -0.787635 0
M  V30 9910 H 943.056 2.55839 -1.52808 0
M  V30 9911 H 940.593 1.25681 -0.764378 0
M  V30 9912 H 942.551 4.15564 0.369075 0
M  V30 9913 H 941.181 3.11652 0.84102 0
M  V30 9914 H 940.233 3.47274 -1.55258 0
M  V30 9915 H 941.545 4.63877 -1.83355 0
M  V30 9916 H 940.699 6.06687 0.0399244 0
M  V30 9917 H 939.438 4.85915 0.416867 0
M  V30 9918 H 938.443 5.17139 -1.86675 0
M  V30 9919 H 939.668 6.41255 -2.23536 0
M  V30 9920 H 937.614 6.56 0.00380893 0
M  V30 9921 H 937.531 7.40867 -1.50505 0
M  V30 9922 H 938.799 7.78586 -0.377282 0
M  V30 9923 N 943.028 0.824394 1.34319 0
M  V30 9924 C 944.275 0.413167 1.9824 0
M  V30 9925 C 944.603 -1.02412 1.65354 0
M  V30 9926 O 943.858 -1.72831 0.91803 0
M  V30 9927 C 944.157 0.564024 3.52921 0
M  V30 9928 C 943.823 1.96725 4.05722 0
M  V30 9929 C 942.485 2.35111 4.19853 0
M  V30 9930 C 944.837 2.88447 4.34106 0
M  V30 9931 C 942.165 3.64551 4.59695 0
M  V30 9932 C 944.517 4.17353 4.75394 0
M  V30 9933 C 943.181 4.55714 4.8773 0
M  V30 9934 H 942.451 0.151188 0.725412 0
M  V30 9935 H 945.098 1.04863 1.60238 0
M  V30 9936 H 943.403 -0.154816 3.91494 0
M  V30 9937 H 945.1 0.226347 4.00361 0
M  V30 9938 H 941.69 1.65908 3.95187 0
M  V30 9939 H 945.874 2.60034 4.22725 0
M  V30 9940 H 941.13 3.94097 4.67437 0
M  V30 9941 H 945.304 4.88512 4.96315 0
M  V30 9942 H 942.931 5.56064 5.1836 0
M  V30 9943 N 944.506 -1.46559 0.579492 0
M  V30 9944 C 945.754 -2.02 0.0637157 0
M  V30 9945 C 946.075 -1.45378 -1.29962 0
M  V30 9946 O 945.345 -0.637262 -1.85245 0
M  V30 9947 H 943.925 -0.746717 0.0205638 0
M  V30 9948 H 946.587 -1.79702 0.754544 0
M  V30 9949 H 945.683 -3.12099 -0.00770254 0
M  V30 9950 N 945.984 -0.3171 -1.54377 0
M  V30 9951 C 946.894 0.560867 -2.27797 0
M  V30 9952 C 947.91 1.13473 -1.31908 0
M  V30 9953 O 949.086 1.15608 -1.64914 0
M  V30 9954 C 946.151 1.70886 -3.0166 0
M  V30 9955 C 945.212 1.16745 -4.13121 0
M  V30 9956 C 944.445 2.26073 -4.83453 0
M  V30 9957 O 944.668 3.46292 -4.53252 0
M  V30 9958 O 943.602 1.91856 -5.70504 0
M  V30 9959 H 947.428 -0.035193 -3.0368 0
M  V30 9960 H 945.013 -0.0830062 -1.49169 0
M  V30 9961 H 946.895 2.37736 -3.47936 0
M  V30 9962 H 945.57 2.29122 -2.28658 0
M  V30 9963 H 944.477 0.464224 -3.71209 0
M  V30 9964 H 945.81 0.630307 -4.88147 0
M  V30 9965 N 947.462 1.57535 -0.0451378 0
M  V30 9966 C 948.878 1.56533 0.311373 0
M  V30 9967 C 949.078 1.05225 1.71843 0
M  V30 9968 O 948.134 0.706144 2.42425 0
M  V30 9969 C 949.447 3.00349 0.145348 0
M  V30 9970 C 950.995 3.12248 0.216908 0
M  V30 9971 C 951.47 4.57931 0.0794834 0
M  V30 9972 N 952.961 4.63 0.135954 0
M  V30 9973 C 953.696 5.73375 0.0536426 0
M  V30 9974 N 953.192 6.92753 -0.0806725 0
M  V30 9975 N 954.985 5.61995 0.108789 0
M  V30 9976 H 947.136 1.89211 -0.965044 0
M  V30 9977 H 949.399 0.871068 -0.374091 0
M  V30 9978 H 949.105 3.41898 -0.824533 0
M  V30 9979 H 948.979 3.66086 0.908903 0
M  V30 9980 H 951.366 2.70601 1.17726 0
M  V30 9981 H 951.447 2.49201 -0.577299 0
M  V30 9982 H 951.091 5.00262 -0.877516 0
M  V30 9983 H 951.021 5.18977 0.892758 0
M  V30 9984 H 953.512 3.77142 0.23926 0
M  V30 9985 H 953.825 7.7268 -0.136351 0
M  V30 9986 H 952.17 6.94904 -0.115675 0
M  V30 9987 H 955.361 4.67619 0.212235 0
M  V30 9988 H 955.534 6.47987 0.0411822 0
M  V30 9989 N 948.94 -0.228186 1.55939 0
M  V30 9990 C 949.903 -1.26621 1.91049 0
M  V30 9991 C 950.903 -1.40141 0.788491 0
M  V30 9992 O 952.093 -1.3852 1.05631 0
M  V30 9993 C 949.225 -2.64108 2.15545 0
M  V30 9994 H 950.418 -0.966978 2.83883 0
M  V30 9995 H 947.971 -0.468313 1.49119 0
M  V30 9996 H 948.706 -2.99141 1.25241 0
M  V30 9997 H 948.491 -2.55673 2.97277 0
M  V30 9998 H 949.981 -3.39025 2.43827 0
M  V30 9999 N 950.418 -1.49637 -0.494624 0
M  V30 10000 C 951.665 -1.59445 -1.24834 0
M  V30 10001 C 951.993 -0.284028 -1.92415 0
M  V30 10002 O 951.248 0.728519 -1.81634 0
M  V30 10003 C 951.547 -2.70749 -2.33302 0
M  V30 10004 C 951.213 -4.12034 -1.83135 0
M  V30 10005 C 949.875 -4.50482 -1.69173 0
M  V30 10006 C 952.227 -5.00432 -1.4566 0
M  V30 10007 C 949.555 -5.75093 -1.16124 0
M  V30 10008 C 951.907 -6.25568 -0.940608 0
M  V30 10009 C 950.571 -6.62839 -0.787432 0
M  V30 10010 H 949.841 -0.583451 -0.456799 0
M  V30 10011 H 952.488 -1.8349 -0.548044 0
M  V30 10012 H 950.793 -2.407 -3.09145 0
M  V30 10013 H 952.49 -2.75546 -2.91334 0
M  V30 10014 H 949.08 -3.8169 -1.94964 0
M  V30 10015 H 953.264 -4.71379 -1.55291 0
M  V30 10016 H 948.52 -6.02665 -1.02982 0
M  V30 10017 H 952.694 -6.93439 -0.641467 0
M  V30 10018 H 950.321 -7.59279 -0.374191 0
M  V30 10019 N 951.896 0.746133 -1.38819 0
M  V30 10020 C 952.843 1.86001 -1.36647 0
M  V30 10021 C 953.813 1.6453 -0.227849 0
M  V30 10022 O 954.998 1.86092 -0.421241 0
M  V30 10023 C 952.138 3.23388 -1.20474 0
M  V30 10024 C 951.251 3.5664 -2.43786 0
M  V30 10025 C 950.386 4.8337 -2.20287 0
M  V30 10026 C 949.425 5.09431 -3.39332 0
M  V30 10027 N 948.562 6.2736 -3.1522 0
M  V30 10028 H 953.402 1.87192 -2.31869 0
M  V30 10029 H 950.939 0.914838 -1.15192 0
M  V30 10030 H 952.897 4.02679 -1.09112 0
M  V30 10031 H 951.527 3.21505 -0.288874 0
M  V30 10032 H 950.579 2.72135 -2.65794 0
M  V30 10033 H 951.891 3.71823 -3.3249 0
M  V30 10034 H 951.045 5.70619 -2.06103 0
M  V30 10035 H 949.784 4.70341 -1.28961 0
M  V30 10036 H 948.789 4.20648 -3.54027 0
M  V30 10037 H 950.014 5.24354 -4.31544 0
M  V30 10038 H 947.96 6.15639 -2.26549 0
M  V30 10039 H 947.877 6.43078 -3.97476 0
M  V30 10040 H 949.145 7.17477 -3.04707 0
M  V30 10041 N 953.375 1.23811 0.975125 0
M  V30 10042 C 954.338 1.02505 2.05001 0
M  V30 10043 C 955.338 -0.0150084 1.60793 0
M  V30 10044 O 956.528 0.225246 1.72738 0
M  V30 10045 C 953.66 0.552087 3.364 0
M  V30 10046 H 954.853 1.979 2.25335 0
M  V30 10047 H 952.406 1.05929 1.1493 0
M  V30 10048 H 953.141 -0.405394 3.21756 0
M  V30 10049 H 952.926 1.30267 3.69828 0
M  V30 10050 H 954.416 0.423828 4.15444 0
M  V30 10051 N 954.853 -1.17469 1.05066 0
M  V30 10052 C 956.099 -1.88225 0.7709 0
M  V30 10053 C 956.454 -1.7943 -0.694452 0
M  V30 10054 O 955.747 -1.19059 -1.50118 0
M  V30 10055 C 955.941 -3.37211 1.18421 0
M  V30 10056 C 955.77 -3.60508 2.68819 0
M  V30 10057 C 954.54 -3.77303 3.36111 0
M  V30 10058 C 956.738 -3.60258 3.6704 0
M  V30 10059 N 954.72 -3.88433 4.75387 0
M  V30 10060 C 956.091 -3.77223 4.92039 0
M  V30 10061 C 958.146 -3.43401 3.60527 0
M  V30 10062 C 956.849 -3.79075 6.11305 0
M  V30 10063 C 958.875 -3.46541 4.79232 0
M  V30 10064 C 958.237 -3.64013 6.03054 0
M  V30 10065 H 954.336 -0.706941 0.334303 0
M  V30 10066 H 956.92 -1.41029 1.34235 0
M  V30 10067 H 955.091 -3.83079 0.640724 0
M  V30 10068 H 956.823 -3.95578 0.854411 0
M  V30 10069 H 953.578 -3.77105 2.86512 0
M  V30 10070 H 954.002 -3.97797 5.47802 0
M  V30 10071 H 958.644 -3.28831 2.65762 0
M  V30 10072 H 956.362 -3.92431 7.06416 0
M  V30 10073 H 959.948 -3.34758 4.75845 0
M  V30 10074 H 958.828 -3.66345 6.93369 0
M  V30 10075 N 956.331 -0.831506 -1.3388 0
M  V30 10076 C 957.294 -0.264773 -2.27666 0
M  V30 10077 C 958.294 0.562273 -1.50649 0
M  V30 10078 O 959.484 0.377131 -1.70069 0
M  V30 10079 C 956.616 0.627814 -3.35069 0
M  V30 10080 H 957.809 -1.09225 -2.79303 0
M  V30 10081 H 955.362 -0.604021 -1.44157 0
M  V30 10082 H 956.097 1.47802 -2.88661 0
M  V30 10083 H 955.882 0.0361552 -3.92083 0
M  V30 10084 H 957.372 1.01786 -4.05005 0
M  V30 10085 N 957.809 1.4625 -0.587256 0
M  V30 10086 C 959.055 2.02662 -0.0746851 0
M  V30 10087 C 959.388 1.45723 1.28368 0
M  V30 10088 O 958.663 0.624062 1.84216 0
M  V30 10089 C 958.946 3.60097 -0.0138109 0
M  V30 10090 C 958.799 4.27412 -1.4014 0
M  V30 10091 C 960.118 4.34744 0.684491 0
M  V30 10092 H 957.237 0.736444 -0.0286144 0
M  V30 10093 H 959.879 1.74341 -0.755328 0
M  V30 10094 H 958.029 3.84357 0.56583 0
M  V30 10095 H 959.701 4.14401 -2.02656 0
M  V30 10096 H 957.944 3.86598 -1.96785 0
M  V30 10097 H 958.615 5.362 -1.31124 0
M  V30 10098 H 961.091 4.15657 0.192023 0
M  V30 10099 H 959.967 5.44468 0.696127 0
M  V30 10100 H 960.228 4.06132 1.74669 0
M  V30 10101 N 959.287 0.325282 1.54207 0
M  V30 10102 C 960.25 -0.527228 2.23054 0
M  V30 10103 C 961.25 -1.04217 1.22456 0
M  V30 10104 O 962.44 -0.934325 1.47024 0
M  V30 10105 C 959.572 -1.7325 2.93594 0
M  V30 10106 H 960.765 0.0746423 2.99807 0
M  V30 10107 H 958.318 0.0763872 1.56113 0
M  V30 10108 H 959.053 -2.37356 2.20981 0
M  V30 10109 H 958.838 -1.37065 3.67363 0
M  V30 10110 H 960.328 -2.3376 3.46043 0
M  V30 10111 N 960.765 -1.57509 0.0534917 0
M  V30 10112 C 962.181 -1.56696 -0.303067 0
M  V30 10113 C 962.381 -1.06135 -1.71282 0
M  V30 10114 O 961.437 -0.71899 -2.42047 0
M  V30 10115 C 962.75 -3.00421 -0.129418 0
M  V30 10116 C 964.298 -3.12358 -0.200346 0
M  V30 10117 C 964.773 -4.57967 -0.0551971 0
M  V30 10118 N 966.264 -4.63066 -0.111398 0
M  V30 10119 C 966.999 -5.73395 -0.0232344 0
M  V30 10120 N 966.495 -6.92701 0.11741 0
M  V30 10121 N 968.288 -5.62045 -0.078984 0
M  V30 10122 H 960.439 -1.88696 0.975064 0
M  V30 10123 H 962.702 -0.869072 0.378706 0
M  V30 10124 H 962.408 -3.41456 0.842653 0
M  V30 10125 H 962.282 -3.66563 -0.889476 0
M  V30 10126 H 964.669 -2.71221 -1.16289 0
M  V30 10127 H 964.75 -2.48891 0.590506 0
M  V30 10128 H 964.394 -4.9979 0.904034 0
M  V30 10129 H 964.324 -5.19443 -0.865223 0
M  V30 10130 H 966.815 -3.77263 -0.219256 0
M  V30 10131 H 967.128 -7.72597 0.177326 0
M  V30 10132 H 965.473 -6.94833 0.152526 0
M  V30 10133 H 968.664 -4.67725 -0.187434 0
M  V30 10134 H 968.837 -6.48 -0.00681731 0
M  V30 10135 N 962.243 0.219913 -1.56058 0
M  V30 10136 C 963.173 1.27572 -1.9557 0
M  V30 10137 C 964.154 1.48801 -0.824148 0
M  V30 10138 O 965.339 1.60957 -1.08658 0
M  V30 10139 C 962.469 2.62517 -2.27381 0
M  V30 10140 C 961.423 2.55941 -3.43042 0
M  V30 10141 C 960.749 3.94931 -3.60463 0
M  V30 10142 C 962.049 2.10584 -4.77966 0
M  V30 10143 H 963.743 0.947482 -2.84013 0
M  V30 10144 H 961.289 0.454337 -1.36645 0
M  V30 10145 H 963.242 3.36538 -2.53615 0
M  V30 10146 H 961.966 2.97031 -1.35794 0
M  V30 10147 H 960.625 1.84377 -3.1686 0
M  V30 10148 H 960.273 4.26756 -2.66249 0
M  V30 10149 H 959.973 3.91413 -4.38258 0
M  V30 10150 H 961.497 4.70611 -3.89046 0
M  V30 10151 H 962.911 2.74349 -5.03394 0
M  V30 10152 H 961.308 2.18122 -5.59055 0
M  V30 10153 H 962.378 1.05818 -4.73213 0
M  V30 10154 N 963.721 1.49897 0.486681 0
M  V30 10155 C 964.946 1.64106 1.26823 0
M  V30 10156 C 965.371 0.317967 1.85393 0
M  V30 10157 O 964.729 -0.71626 1.66551 0
M  V30 10158 C 964.777 2.72301 2.36399 0
M  V30 10159 O 963.881 2.32469 3.40634 0
M  V30 10160 H 963.222 0.548794 0.373793 0
M  V30 10161 H 965.752 1.96177 0.581017 0
M  V30 10162 H 965.762 2.94906 2.81948 0
M  V30 10163 H 964.437 3.68335 1.93137 0
M  V30 10164 H 963.014 2.20251 3.00905 0
M  V30 10165 N 965.199 -0.738761 1.39212 0
M  V30 10166 C 966.131 -1.86286 1.3353 0
M  V30 10167 C 967.144 -1.6095 0.244755 0
M  V30 10168 O 968.333 -1.71254 0.50343 0
M  V30 10169 C 965.433 -3.22234 1.04969 0
M  V30 10170 C 964.606 -3.74956 2.25226 0
M  V30 10171 C 963.665 -4.89457 1.9318 0
M  V30 10172 O 962.691 -5.03314 2.65826 0
M  V30 10173 N 963.893 -5.73548 0.895679 0
M  V30 10174 H 966.658 -1.91666 2.304 0
M  V30 10175 H 964.219 -0.919338 1.33266 0
M  V30 10176 H 966.211 -3.96397 0.815566 0
M  V30 10177 H 964.781 -3.12146 0.168451 0
M  V30 10178 H 964.001 -2.92188 2.64612 0
M  V30 10179 H 965.289 -4.06914 3.05448 0
M  V30 10180 H 964.687 -5.64938 0.293541 0
M  V30 10181 H 963.244 -6.47795 0.721451 0
M  V30 10182 N 966.677 -1.24326 -0.968545 0
M  V30 10183 C 968.093 -1.00847 -1.23701 0
M  V30 10184 C 968.293 0.283235 -1.99499 0
M  V30 10185 O 967.349 0.999607 -2.31871 0
M  V30 10186 C 968.662 -2.22295 -2.02498 0
M  V30 10187 C 970.21 -2.26911 -2.15593 0
M  V30 10188 C 970.685 -3.47978 -2.97784 0
M  V30 10189 N 972.176 -3.48289 -3.05367 0
M  V30 10190 C 972.911 -4.38625 -3.69318 0
M  V30 10191 N 972.407 -5.39213 -4.34995 0
M  V30 10192 N 974.2 -4.26339 -3.66322 0
M  V30 10193 H 966.351 -2.07335 -0.461087 0
M  V30 10194 H 968.614 -0.909805 -0.26638 0
M  V30 10195 H 968.32 -3.161 -1.54188 0
M  V30 10196 H 968.194 -2.24344 -3.03232 0
M  V30 10197 H 970.581 -1.33639 -2.63106 0
M  V30 10198 H 970.662 -2.28888 -1.14209 0
M  V30 10199 H 970.306 -4.41564 -2.50965 0
M  V30 10200 H 970.236 -3.43244 -3.99364 0
M  V30 10201 H 972.727 -2.75517 -2.58648 0
M  V30 10202 H 973.04 -6.04378 -4.81608 0
M  V30 10203 H 971.385 -5.43101 -4.33667 0
M  V30 10204 H 974.576 -3.46991 -3.14189 0
M  V30 10205 H 974.749 -4.9694 -4.15878 0
M  V30 10206 N 968.156 1.1691 -1.05688 0
M  V30 10207 C 969.403 1.87292 -0.76993 0
M  V30 10208 C 969.731 1.81339 0.703295 0
M  V30 10209 O 968.986 1.21959 1.5305 0
M  V30 10210 C 969.285 3.36578 -1.20207 0
M  V30 10211 C 968.951 3.62732 -2.67836 0
M  V30 10212 C 967.613 3.69579 -3.08163 0
M  V30 10213 C 969.965 3.73803 -3.63209 0
M  V30 10214 C 967.293 3.84992 -4.42717 0
M  V30 10215 C 969.645 3.90735 -4.97503 0
M  V30 10216 C 968.309 3.95823 -5.37476 0
M  V30 10217 H 967.579 0.68535 -0.281737 0
M  V30 10218 H 970.226 1.38274 -1.32486 0
M  V30 10219 H 968.531 3.87687 -0.566222 0
M  V30 10220 H 970.228 3.89409 -0.957183 0
M  V30 10221 H 966.818 3.58031 -2.35609 0
M  V30 10222 H 971.002 3.67829 -3.3319 0
M  V30 10223 H 966.258 3.87181 -4.73182 0
M  V30 10224 H 970.432 3.98243 -5.71293 0
M  V30 10225 H 968.059 4.07518 -6.41742 0
M  V30 10226 N 969.634 0.838594 1.33437 0
M  V30 10227 C 971.045 0.490934 1.8013 0
M  V30 10228 C 971.396 -0.990024 1.6939 0
M  V30 10229 O 970.521 -1.77139 1.24302 0
M  V30 10230 C 971.116 0.884347 3.27055 0
M  V30 10231 C 969.675 0.588829 3.71766 0
M  V30 10232 C 968.822 1.09282 2.54858 0
M  V30 10233 H 971.773 1.02732 1.20962 0
M  V30 10234 H 971.794 0.194283 3.80004 0
M  V30 10235 H 971.306 1.96225 3.34839 0
M  V30 10236 H 969.407 -0.479018 3.69508 0
M  V30 10237 H 969.52 1.14387 4.65245 0
M  V30 10238 H 967.884 0.513702 2.49466 0
M  V30 10239 H 968.667 2.1775 2.65405 0
M  V30 10240 N 971.112 -1.45937 0.595003 0
M  V30 10241 C 972.059 -2.30427 -0.131165 0
M  V30 10242 C 973.029 -1.41355 -0.872232 0
M  V30 10243 O 974.214 -1.70296 -0.860467 0
M  V30 10244 C 971.354 -3.26045 -1.13087 0
M  V30 10245 C 970.467 -4.30218 -0.391982 0
M  V30 10246 C 969.602 -5.12953 -1.3803 0
M  V30 10247 C 968.641 -6.08865 -0.628505 0
M  V30 10248 N 967.778 -6.84425 -1.56548 0
M  V30 10249 H 972.618 -2.91992 0.595359 0
M  V30 10250 H 970.155 -1.43895 0.305405 0
M  V30 10251 H 972.113 -3.79937 -1.72348 0
M  V30 10252 H 970.743 -2.66261 -1.82496 0
M  V30 10253 H 969.795 -3.79086 0.315895 0
M  V30 10254 H 971.107 -4.98418 0.195173 0
M  V30 10255 H 970.261 -5.71184 -2.04534 0
M  V30 10256 H 969 -4.44743 -2.00138 0
M  V30 10257 H 968.005 -5.49777 0.0502431 0
M  V30 10258 H 969.23 -6.79099 -0.012641 0
M  V30 10259 H 967.176 -6.18913 -2.17444 0
M  V30 10260 H 967.093 -7.48931 -1.03145 0
M  V30 10261 H 968.361 -7.47204 -2.22049 0
M  V30 10262 N 972.59 -0.333456 -1.54032 0
M  V30 10263 C 973.553 0.515392 -2.2333 0
M  V30 10264 C 974.553 1.03566 -1.23007 0
M  V30 10265 O 975.743 0.926514 -1.47517 0
M  V30 10266 C 972.875 1.7169 -2.94508 0
M  V30 10267 H 974.068 -0.0905407 -2.99763 0
M  V30 10268 H 971.621 -0.0846651 -1.56071 0
M  V30 10269 H 972.356 2.3618 -2.22237 0
M  V30 10270 H 972.141 1.35115 -3.68085 0
M  V30 10271 H 973.631 2.31922 -3.47278 0
M  V30 10272 N 974.068 1.57479 -0.061844 0
M  V30 10273 C 974.978 2.15645 0.923826 0
M  V30 10274 C 975.994 1.117 1.33413 0
M  V30 10275 O 977.17 1.4392 1.40887 0
M  V30 10276 C 974.235 2.69857 2.17665 0
M  V30 10277 C 973.296 3.88638 1.8237 0
M  V30 10278 C 972.529 4.40256 3.01679 0
M  V30 10279 O 972.752 3.90908 4.15388 0
M  V30 10280 O 971.686 5.31713 2.82073 0
M  V30 10281 H 975.512 3.0021 0.459094 0
M  V30 10282 H 973.097 1.48534 0.160665 0
M  V30 10283 H 974.979 3.04647 2.9115 0
M  V30 10284 H 973.654 1.88357 2.63255 0
M  V30 10285 H 972.561 3.58719 1.06167 0
M  V30 10286 H 973.894 4.71401 1.4157 0
M  V30 10287 N 975.546 -0.211634 1.56173 0
M  V30 10288 C 976.793 -0.93455 1.79645 0
M  V30 10289 C 977.121 -1.83936 0.632294 0
M  V30 10290 O 976.376 -1.91919 -0.382841 0
M  V30 10291 C 976.675 -1.79657 3.08963 0
M  V30 10292 C 976.341 -1.04415 4.38644 0
M  V30 10293 C 975.003 -0.836351 4.73876 0
M  V30 10294 C 977.355 -0.51355 5.18664 0
M  V30 10295 C 974.683 -0.0861976 5.86637 0
M  V30 10296 C 977.035 0.223309 6.32206 0
M  V30 10297 C 975.699 0.442279 6.66033 0
M  V30 10298 H 974.969 -0.341976 0.657368 0
M  V30 10299 H 977.616 -0.202024 1.90431 0
M  V30 10300 H 975.921 -2.59726 2.93342 0
M  V30 10301 H 977.618 -2.35823 3.24328 0
M  V30 10302 H 974.208 -1.21611 4.10985 0
M  V30 10303 H 978.392 -0.661541 4.91871 0
M  V30 10304 H 973.648 0.0935866 6.11328 0
M  V30 10305 H 977.822 0.641917 6.93435 0
M  V30 10306 H 975.449 1.02547 7.53252 0
M  V30 10307 N 977.024 -1.50153 -0.478725 0
M  V30 10308 C 977.987 -1.67916 -1.56003 0
M  V30 10309 C 978.987 -0.550111 -1.51097 0
M  V30 10310 O 980.177 -0.817001 -1.53853 0
M  V30 10311 C 977.309 -1.6973 -2.95643 0
M  V30 10312 H 978.502 -2.6438 -1.41573 0
M  V30 10313 H 976.055 -1.39519 -0.704565 0
M  V30 10314 H 976.79 -0.749306 -3.15525 0
M  V30 10315 H 976.575 -2.51745 -3.00611 0
M  V30 10316 H 978.065 -1.85453 -3.74162 0
M  V30 10317 N 978.502 0.731368 -1.39602 0
M  V30 10318 C 979.412 1.87579 -1.40894 0
M  V30 10319 C 980.428 1.71336 -0.303319 0
M  V30 10320 O 981.604 1.93875 -0.545377 0
M  V30 10321 C 978.669 3.23211 -1.25442 0
M  V30 10322 C 977.73 3.51822 -2.46008 0
M  V30 10323 C 976.963 4.80982 -2.31284 0
M  V30 10324 O 977.186 5.54958 -1.31824 0
M  V30 10325 O 976.12 5.09574 -3.20341 0
M  V30 10326 H 979.946 1.89444 -2.3737 0
M  V30 10327 H 977.531 0.879675 -1.20756 0
M  V30 10328 H 979.413 4.04257 -1.18972 0
M  V30 10329 H 978.088 3.22108 -0.320637 0
M  V30 10330 H 976.995 2.70847 -2.58055 0
M  V30 10331 H 978.328 3.57707 -3.38093 0
M  V30 10332 N 979.98 1.24838 0.961938 0
M  V30 10333 C 981.226 1.09313 1.70817 0
M  V30 10334 C 981.559 -0.366244 1.90715 0
M  V30 10335 O 980.834 -1.27036 1.47282 0
M  V30 10336 C 981.117 1.83988 3.09549 0
M  V30 10337 C 980.97 3.3771 2.97106 0
M  V30 10338 C 982.289 1.61718 4.09311 0
M  V30 10339 H 979.408 0.398498 0.619974 0
M  V30 10340 H 982.05 1.53579 1.11864 0
M  V30 10341 H 980.2 1.46363 3.59875 0
M  V30 10342 H 981.872 3.84967 2.54161 0
M  V30 10343 H 980.115 3.65795 2.33187 0
M  V30 10344 H 980.786 3.85166 3.95412 0
M  V30 10345 H 983.262 1.94458 3.67866 0
M  V30 10346 H 982.138 2.16415 5.04436 0
M  V30 10347 H 982.399 0.55677 4.3858 0
M  V30 10348 N 981.458 -1.16348 1.06306 0
M  V30 10349 C 982.683 -1.91323 0.800636 0
M  V30 10350 C 983.108 -1.7691 -0.639105 0
M  V30 10351 O 982.466 -1.0945 -1.44535 0
M  V30 10352 C 982.514 -3.40038 1.20027 0
M  V30 10353 O 981.618 -4.11003 0.339142 0
M  V30 10354 H 980.959 -0.596057 0.292595 0
M  V30 10355 H 983.489 -1.47406 1.41889 0
M  V30 10356 H 983.499 -3.90808 1.17188 0
M  V30 10357 H 982.174 -3.49848 2.24898 0
M  V30 10358 H 980.751 -3.70423 0.42911 0
M  V30 10359 N 982.937 -0.845659 -1.3299 0
M  V30 10360 C 983.884 -0.281761 -2.29074 0
M  V30 10361 C 984.854 0.606237 -1.54641 0
M  V30 10362 O 986.039 0.543063 -1.82908 0
M  V30 10363 C 983.179 0.531451 -3.40983 0
M  V30 10364 C 982.292 -0.381328 -4.30314 0
M  V30 10365 C 981.427 0.443643 -5.29344 0
M  V30 10366 C 980.466 -0.467101 -6.10315 0
M  V30 10367 N 979.603 0.320148 -7.0137 0
M  V30 10368 H 984.443 -1.10641 -2.76699 0
M  V30 10369 H 981.98 -0.55706 -1.36144 0
M  V30 10370 H 983.938 1.01848 -4.04577 0
M  V30 10371 H 982.568 1.32101 -2.94532 0
M  V30 10372 H 981.62 -0.986701 -3.6738 0
M  V30 10373 H 982.932 -1.08067 -4.86953 0
M  V30 10374 H 982.086 0.994212 -5.98498 0
M  V30 10375 H 980.825 1.17639 -4.73299 0
M  V30 10376 H 979.83 -1.02963 -5.40073 0
M  V30 10377 H 981.055 -1.19832 -6.68444 0
M  V30 10378 H 979.001 1.03615 -6.47765 0
M  V30 10379 H 978.918 -0.320338 -7.55321 0
M  V30 10380 H 980.186 0.852735 -7.74822 0
M  V30 10381 N 984.415 1.45619 -0.602734 0
M  V30 10382 C 985.345 2.33258 0.106342 0
M  V30 10383 C 986.326 1.46543 0.863664 0
M  V30 10384 O 987.511 1.75324 0.835175 0
M  V30 10385 C 984.641 3.29168 1.10751 0
M  V30 10386 C 983.595 4.25481 0.463717 0
M  V30 10387 C 982.921 5.11046 1.57278 0
M  V30 10388 C 984.221 5.18702 -0.61199 0
M  V30 10389 H 985.915 2.92795 -0.625423 0
M  V30 10390 H 983.461 1.40793 -0.302213 0
M  V30 10391 H 985.414 3.89346 1.61208 0
M  V30 10392 H 984.138 2.6778 1.8698 0
M  V30 10393 H 982.797 3.66595 -0.0199496 0
M  V30 10394 H 982.445 4.46029 2.32524 0
M  V30 10395 H 982.145 5.76286 1.14755 0
M  V30 10396 H 983.669 5.74091 2.07972 0
M  V30 10397 H 985.083 5.72979 -0.191686 0
M  V30 10398 H 983.48 5.92393 -0.958686 0
M  V30 10399 H 984.55 4.61424 -1.4905 0
M  V30 10400 N 985.893 0.34162 1.53853 0
M  V30 10401 C 987.139 -0.255862 2.01179 0
M  V30 10402 C 987.472 -1.50356 1.22909 0
M  V30 10403 O 986.747 -1.91913 0.316198 0
M  V30 10404 C 987.03 -0.571934 3.55529 0
M  V30 10405 C 986.883 0.687727 4.44511 0
M  V30 10406 C 988.202 -1.38233 4.17827 0
M  V30 10407 H 985.321 -0.091521 0.731295 0
M  V30 10408 H 987.963 0.461775 1.84303 0
M  V30 10409 H 986.113 -1.18331 3.70041 0
M  V30 10410 H 987.785 1.32572 4.4184 0
M  V30 10411 H 986.028 1.313 4.13452 0
M  V30 10412 H 986.699 0.421858 5.50386 0
M  V30 10413 H 989.175 -0.865374 4.07002 0
M  V30 10414 H 988.051 -1.57223 5.25901 0
M  V30 10415 H 988.312 -2.38386 3.72323 0
M  V30 10416 N 987.371 -1.57444 0.0701946 0
M  V30 10417 C 988.599 -1.97754 -0.608358 0
M  V30 10418 C 989.014 -0.948496 -1.63245 0
M  V30 10419 O 988.371 0.065046 -1.82384 0
M  V30 10420 C 988.422 -3.38142 -1.27836 0
M  V30 10421 O 988.143 -4.37104 -0.295255 0
M  V30 10422 C 989.644 -3.93318 -2.04489 0
M  V30 10423 H 986.864 -0.650398 -0.164997 0
M  V30 10424 H 989.408 -2.04006 0.142124 0
M  V30 10425 H 987.563 -3.32982 -1.97994 0
M  V30 10426 H 987.977 -5.18732 -0.77574 0
M  V30 10427 H 989.451 -4.93774 -2.46762 0
M  V30 10428 H 989.928 -3.29774 -2.90079 0
M  V30 10429 H 990.534 -4.01875 -1.39201 0
M  V30 10430 N 988.849 0.203349 -1.56283 0
M  V30 10431 C 990.126 0.950415 -1.70958 0
M  V30 10432 C 990.506 2.01708 -0.622647 0
M  V30 10433 O 989.854 2.25523 0.367635 0
M  V30 10434 C 990.064 1.54434 -3.12971 0
M  V30 10435 C 991.412 2.02964 -3.72949 0
M  V30 10436 O 992.436 1.64293 -3.16048 0
M  V30 10437 O 991.295 2.74097 -4.72793 0
M  V30 10438 H 988.389 0.445154 -0.69697 0
M  V30 10439 H 990.935 0.193695 -1.68591 0
M  V30 10440 H 989.707 0.77505 -3.83547 0
M  V30 10441 H 989.33 2.36611 -3.19532 0
M  V30 10442 N 990.327 1.50405 0.470755 0
M  V30 10443 C 991.257 1.72222 1.57676 0
M  V30 10444 C 992.238 0.57121 1.60222 0
M  V30 10445 O 993.423 0.810381 1.76484 0
M  V30 10446 C 990.553 1.81666 2.95998 0
M  V30 10447 C 989.507 2.96857 3.08318 0
M  V30 10448 C 988.833 2.91445 4.4829 0
M  V30 10449 C 990.133 4.37361 2.85504 0
M  V30 10450 H 991.827 2.64825 1.39671 0
M  V30 10451 H 989.373 1.27438 0.67049 0
M  V30 10452 H 991.326 1.95514 3.73299 0
M  V30 10453 H 990.05 0.856856 3.1516 0
M  V30 10454 H 988.709 2.82661 2.33449 0
M  V30 10455 H 988.357 1.93309 4.64371 0
M  V30 10456 H 988.057 3.68776 4.57469 0
M  V30 10457 H 989.581 3.07341 5.27611 0
M  V30 10458 H 990.995 4.52081 3.52555 0
M  V30 10459 H 989.392 5.16145 3.06127 0
M  V30 10460 H 990.462 4.49708 1.81359 0
M  V30 10461 N 991.805 -0.723954 1.39988 0
M  V30 10462 C 993.033 -1.51313 1.4111 0
M  V30 10463 C 993.448 -1.88798 0.00853333 0
M  V30 10464 O 992.805 -1.54868 -0.965516 0
M  V30 10465 C 992.856 -2.79375 2.29416 0
M  V30 10466 O 992.577 -2.43478 3.64211 0
M  V30 10467 C 994.078 -3.7333 2.3904 0
M  V30 10468 H 991.298 -0.46724 0.481589 0
M  V30 10469 H 993.842 -0.893694 1.83938 0
M  V30 10470 H 991.997 -3.37624 1.89971 0
M  V30 10471 H 992.411 -3.25821 4.11024 0
M  V30 10472 H 993.885 -4.60051 3.05053 0
M  V30 10473 H 994.362 -4.15854 1.41289 0
M  V30 10474 H 994.968 -3.20996 2.79001 0
M  V30 10475 N 993.283 -1.25346 -0.955304 0
M  V30 10476 C 994.23 -1.05672 -2.05188 0
M  V30 10477 C 995.2 0.0339217 -1.66065 0
M  V30 10478 O 996.385 -0.123126 -1.90402 0
M  V30 10479 C 993.525 -0.680791 -3.38318 0
M  V30 10480 C 992.638 -1.84622 -3.90562 0
M  V30 10481 C 991.773 -1.41471 -5.12015 0
M  V30 10482 C 990.812 -2.54931 -5.56486 0
M  V30 10483 N 989.949 -2.1256 -6.69151 0
M  V30 10484 H 994.789 -1.9952 -2.2135 0
M  V30 10485 H 992.326 -0.993588 -1.08472 0
M  V30 10486 H 994.284 -0.443794 -4.14833 0
M  V30 10487 H 992.914 0.2207 -3.22045 0
M  V30 10488 H 991.966 -2.19654 -3.10574 0
M  V30 10489 H 993.278 -2.6983 -4.19515 0
M  V30 10490 H 992.432 -1.13732 -5.95945 0
M  V30 10491 H 991.171 -0.533334 -4.84775 0
M  V30 10492 H 990.176 -2.83415 -4.71122 0
M  V30 10493 H 991.401 -3.43645 -5.85734 0
M  V30 10494 H 989.347 -1.26838 -6.43621 0
M  V30 10495 H 989.264 -2.91317 -6.97618 0
M  V30 10496 H 990.532 -1.87996 -7.5649 0
M  V30 10497 N 994.761 1.15782 -1.06922 0
M  V30 10498 C 996.007 1.86741 -0.790922 0
M  V30 10499 C 996.34 1.81863 0.681149 0
M  V30 10500 O 995.615 1.23871 1.49954 0
M  V30 10501 C 995.898 3.36038 -1.29422 0
M  V30 10502 C 995.751 3.49573 -2.83052 0
M  V30 10503 C 997.07 4.30647 -0.907239 0
M  V30 10504 H 994.189 0.678064 -0.288787 0
M  V30 10505 H 996.831 1.36054 -1.32624 0
M  V30 10506 H 994.981 3.79336 -0.838843 0
M  V30 10507 H 996.653 3.1517 -3.36847 0
M  V30 10508 H 994.896 2.91275 -3.21467 0
M  V30 10509 H 995.567 4.5445 -3.13335 0
M  V30 10510 H 998.043 3.95286 -1.29956 0
M  V30 10511 H 996.919 5.33604 -1.28679 0
M  V30 10512 H 997.18 4.41703 0.187251 0
M  V30 10513 N 996.239 0.8527 1.3254 0
M  V30 10514 C 997.189 0.267711 2.26423 0
M  V30 10515 C 998.173 -0.585305 1.49877 0
M  V30 10516 O 999.365 -0.435008 1.71571 0
M  V30 10517 C 996.494 -0.544605 3.38953 0
M  V30 10518 C 995.58 0.32069 4.22886 0
M  V30 10519 N 995.971 1.40601 4.85865 0
M  V30 10520 C 994.269 0.110101 4.45864 0
M  V30 10521 C 994.97 1.93819 5.48461 0
M  V30 10522 N 993.946 1.23764 5.29324 0
M  V30 10523 H 997.748 1.09747 2.7264 0
M  V30 10524 H 995.262 0.698607 1.46606 0
M  V30 10525 H 997.259 -0.98009 4.05216 0
M  V30 10526 H 995.919 -1.37218 2.94281 0
M  V30 10527 H 996.93 1.78894 4.86022 0
M  V30 10528 H 993.607 -0.682917 4.11877 0
M  V30 10529 H 994.997 2.84783 6.08562 0
M  V30 10530 N 997.718 -1.45297 0.610449 0
M  V30 10531 C 998.946 -2.0659 0.113211 0
M  V30 10532 C 999.361 -1.4546 -1.20361 0
M  V30 10533 O 998.718 -0.569823 -1.73376 0
M  V30 10534 C 998.769 -3.61488 -0.0298411 0
M  V30 10535 O 998.49 -4.20336 1.23488 0
M  V30 10536 C 999.991 -4.39772 -0.558202 0
M  V30 10537 H 997.211 -0.667322 0.0701555 0
M  V30 10538 H 999.755 -1.86497 0.838993 0
M  V30 10539 H 997.91 -3.80913 -0.705963 0
M  V30 10540 H 998.324 -5.13545 1.0664 0
M  V30 10541 H 999.798 -5.48648 -0.607375 0
M  V30 10542 H 1000.27 -4.09755 -1.58107 0
M  V30 10543 H 1000.88 -4.25217 0.0839704 0
M  V30 10544 N 999.196 -0.349774 -1.5367 0
M  V30 10545 C 1000.11 0.512421 -2.28935 0
M  V30 10546 C 1001.12 1.1065 -1.34286 0
M  V30 10547 O 1002.3 1.12084 -1.67329 0
M  V30 10548 C 999.363 1.64449 -3.05217 0
M  V30 10549 C 998.424 1.07956 -4.15505 0
M  V30 10550 C 997.657 2.15768 -4.88139 0
M  V30 10551 O 997.88 3.366 -4.60496 0
M  V30 10552 O 996.814 1.79712 -5.74445 0
M  V30 10553 H 1000.64 -0.0996001 -3.03537 0
M  V30 10554 H 998.225 -0.114629 -1.4896 0
M  V30 10555 H 1000.11 2.30302 -3.52901 0
M  V30 10556 H 998.782 2.24221 -2.33467 0
M  V30 10557 H 997.689 0.385381 -3.7211 0
M  V30 10558 H 999.022 0.526621 -4.89375 0
M  V30 10559 N 1000.67 1.57404 -0.0785433 0
M  V30 10560 C 1001.91 1.95621 0.592595 0
M  V30 10561 C 1002.28 0.958429 1.66367 0
M  V30 10562 O 1003.48 1.2285 2.39084 0
M  V30 10563 C 1001.75 3.38445 1.14846 0
M  V30 10564 S 1003.31 3.98645 1.83378 0
M  V30 10565 H 1000.13 0.684063 0.193851 0
M  V30 10566 H 1002.73 1.94892 -0.154007 0
M  V30 10567 H 1001.43 4.08843 0.357179 0
M  V30 10568 H 1000.96 3.42733 1.93127 0
M  V30 10569 H 1002.98 3.86099 3.11676 0
M  V30 10570 N 1002.15 -0.195058 1.56388 0
M  V30 10571 C 1003.39 -0.92221 1.82413 0
M  V30 10572 C 1003.76 -1.80444 0.656037 0
M  V30 10573 O 1004.96 -2.56738 0.796182 0
M  V30 10574 C 1003.23 -1.71687 3.13462 0
M  V30 10575 S 1004.79 -2.49604 3.60892 0
M  V30 10576 H 1001.6 -0.309316 0.640191 0
M  V30 10577 H 1004.21 -0.185613 1.94617 0
M  V30 10578 H 1002.91 -1.05936 3.96492 0
M  V30 10579 H 1002.44 -2.49529 3.04137 0
M  V30 10580 H 1004.46 -3.73794 3.26332 0
M  V30 10581 N 1003.63 -1.50653 -0.462772 0
M  V30 10582 C 1004.58 -1.66509 -1.55752 0
M  V30 10583 C 1005.56 -0.519508 -1.52282 0
M  V30 10584 O 1006.76 -0.774296 -1.59166 0
M  V30 10585 C 1003.88 -1.77023 -2.94139 0
M  V30 10586 C 1002.97 -2.97284 -3.02461 0
M  V30 10587 N 1003.36 -4.20843 -2.80579 0
M  V30 10588 C 1001.66 -2.96014 -3.33604 0
M  V30 10589 C 1002.36 -5.01886 -2.94084 0
M  V30 10590 N 1001.34 -4.3601 -3.24648 0
M  V30 10591 H 1005.14 -2.59727 -1.37546 0
M  V30 10592 H 1002.65 -1.47951 -0.669653 0
M  V30 10593 H 1004.65 -1.86488 -3.72864 0
M  V30 10594 H 1003.31 -0.849688 -3.13385 0
M  V30 10595 H 1004.32 -4.50206 -2.55998 0
M  V30 10596 H 1001 -2.13493 -3.58786 0
M  V30 10597 H 1002.39 -6.10164 -2.81334 0
M  V30 10598 N 1005.11 0.71652 -1.4037 0
M  V30 10599 C 1006.36 1.47347 -1.38324 0
M  V30 10600 C 1006.68 1.94995 0.0139949 0
M  V30 10601 O 1005.95 1.7028 0.968585 0
M  V30 10602 H 1004.53 0.546662 -0.509087 0
M  V30 10603 H 1007.19 0.849455 -1.75415 0
M  V30 10604 H 1006.29 2.34675 -2.05752 0
M  V30 10605 N 1006.59 1.25851 0.948643 0
M  V30 10606 C 1007.86 1.01717 1.67072 0
M  V30 10607 C 1008.24 -0.454749 2.06144 0
M  V30 10608 O 1007.59 -1.43345 1.77945 0
M  V30 10609 C 1007.8 1.95872 2.88852 0
M  V30 10610 C 1009.15 2.24057 3.60671 0
M  V30 10611 O 1010.17 1.93678 2.98944 0
M  V30 10612 O 1009.03 2.75745 4.71833 0
M  V30 10613 H 1006.13 0.386198 0.731287 0
M  V30 10614 H 1008.67 1.37031 1.00104 0
M  V30 10615 H 1007.44 2.95233 2.56814 0
M  V30 10616 H 1007.07 1.60992 3.63548 0
M  V30 10617 N 1008.06 -1.15214 1.07534 0
M  V30 10618 C 1008.99 -2.2216 0.718837 0
M  V30 10619 C 1009.98 -1.6753 -0.29459 0
M  V30 10620 O 1011.16 -1.93481 -0.166931 0
M  V30 10621 C 1008.29 -3.471 0.117836 0
M  V30 10622 C 1007.24 -4.14701 1.05862 0
M  V30 10623 C 1006.57 -5.3374 0.320284 0
M  V30 10624 C 1007.87 -4.64254 2.39302 0
M  V30 10625 H 1009.56 -2.52237 1.61297 0
M  V30 10626 H 1007.11 -1.21239 0.776992 0
M  V30 10627 H 1009.06 -4.21156 -0.143519 0
M  V30 10628 H 1007.79 -3.16361 -0.811389 0
M  V30 10629 H 1006.45 -3.42589 1.30493 0
M  V30 10630 H 1006.09 -4.99257 -0.61246 0
M  V30 10631 H 1005.79 -5.79912 0.947381 0
M  V30 10632 H 1007.32 -6.10563 0.0667721 0
M  V30 10633 H 1008.73 -5.29827 2.18988 0
M  V30 10634 H 1007.13 -5.21095 2.97623 0
M  V30 10635 H 1008.2 -3.79793 3.01472 0
M  V30 10636 N 1009.54 -0.859717 -1.32086 0
M  V30 10637 C 1010.47 -0.323502 -2.31248 0
M  V30 10638 C 1011.45 0.580085 -1.59903 0
M  V30 10639 O 1012.64 0.499265 -1.87673 0
M  V30 10640 C 1009.77 0.484661 -3.43902 0
M  V30 10641 C 1008.72 -0.324933 -4.26765 0
M  V30 10642 C 1008.05 0.608281 -5.31229 0
M  V30 10643 C 1009.35 -1.55344 -4.98664 0
M  V30 10644 H 1011.04 -1.15209 -2.76346 0
M  V30 10645 H 1008.59 -0.555442 -1.32856 0
M  V30 10646 H 1010.54 0.870238 -4.12316 0
M  V30 10647 H 1009.27 1.34666 -2.97544 0
M  V30 10648 H 1007.92 -0.692328 -3.60003 0
M  V30 10649 H 1007.57 1.46727 -4.81124 0
M  V30 10650 H 1007.27 0.0705571 -5.87558 0
M  V30 10651 H 1008.8 0.990925 -6.02506 0
M  V30 10652 H 1010.21 -1.23987 -5.59732 0
M  V30 10653 H 1008.61 -2.02947 -5.64741 0
M  V30 10654 H 1009.68 -2.31192 -4.26237 0
M  V30 10655 N 1011.02 1.44971 -0.618145 0
M  V30 10656 C 1011.93 2.34403 0.0960457 0
M  V30 10657 C 1012.95 1.51862 0.849355 0
M  V30 10658 O 1014.12 1.84632 0.804557 0
M  V30 10659 C 1011.19 3.29646 1.07397 0
M  V30 10660 C 1010.25 4.28095 0.321466 0
M  V30 10661 C 1009.48 5.18787 1.25281 0
M  V30 10662 O 1009.7 5.1313 2.49106 0
M  V30 10663 O 1008.64 5.97282 0.744156 0
M  V30 10664 H 1012.46 2.96898 -0.639176 0
M  V30 10665 H 1010.05 1.44529 -0.37837 0
M  V30 10666 H 1011.93 3.88307 1.63694 0
M  V30 10667 H 1010.61 2.69702 1.79004 0
M  V30 10668 H 1009.51 3.73019 -0.284223 0
M  V30 10669 H 1010.85 4.90923 -0.354315 0
M  V30 10670 N 1012.5 0.357919 1.53482 0
M  V30 10671 C 1013.74 -0.23433 2.03052 0
M  V30 10672 C 1014.1 -1.46614 1.23969 0
M  V30 10673 O 1015.3 -2.13351 1.63508 0
M  V30 10674 C 1013.57 -0.526653 3.53498 0
M  V30 10675 S 1015.13 -1.09366 4.24952 0
M  V30 10676 H 1011.95 -0.0687848 0.707665 0
M  V30 10677 H 1014.55 0.499011 1.89024 0
M  V30 10678 H 1013.26 0.377463 4.0866 0
M  V30 10679 H 1012.79 -1.28927 3.71674 0
M  V30 10680 H 1014.8 -2.37845 4.35481 0
M  V30 10681 N 1013.98 -1.5736 0.0868897 0
M  V30 10682 C 1014.94 -2.12436 -0.860439 0
M  V30 10683 C 1015.94 -1.05175 -1.21634 0
M  V30 10684 O 1017.13 -1.31098 -1.14713 0
M  V30 10685 C 1014.26 -2.63818 -2.159 0
M  V30 10686 H 1015.45 -2.97453 -0.382346 0
M  V30 10687 H 1013.01 -1.55458 -0.162009 0
M  V30 10688 H 1013.74 -1.82298 -2.68212 0
M  V30 10689 H 1013.53 -3.42234 -1.91359 0
M  V30 10690 H 1015.02 -3.06452 -2.83685 0
M  V30 10691 N 1015.45 0.186762 -1.56489 0
M  V30 10692 C 1016.73 0.932229 -1.71956 0
M  V30 10693 C 1017.11 2.01037 -0.644006 0
M  V30 10694 O 1016.46 2.259 0.343694 0
M  V30 10695 C 1016.67 1.51106 -3.14592 0
M  V30 10696 C 1018.02 1.98997 -3.75081 0
M  V30 10697 O 1019.04 1.60931 -3.17773 0
M  V30 10698 O 1017.9 2.69067 -4.75673 0
M  V30 10699 H 1014.99 0.437736 -0.701652 0
M  V30 10700 H 1017.54 0.175803 -1.68787 0
M  V30 10701 H 1016.31 0.734327 -3.84348 0
M  V30 10702 H 1015.94 2.33209 -3.22024 0
M  V30 10703 N 1016.93 1.50896 0.454776 0
M  V30 10704 C 1018.21 1.53227 1.21576 0
M  V30 10705 C 1018.59 0.286358 2.09149 0
M  V30 10706 O 1017.94 -0.729469 2.16543 0
M  V30 10707 C 1018.15 2.83693 2.03271 0
M  V30 10708 C 1019.5 3.34981 2.60908 0
M  V30 10709 O 1020.52 2.85126 2.13499 0
M  V30 10710 O 1019.38 4.21929 3.4733 0
M  V30 10711 H 1016.47 0.615306 0.552564 0
M  V30 10712 H 1019.02 1.63197 0.465266 0
M  V30 10713 H 1017.79 3.65839 1.38843 0
M  V30 10714 H 1017.41 2.76803 2.85422 0
M  V30 10715 N 1018.41 -0.709066 1.40748 0
M  V30 10716 C 1019.83 -1.01797 1.22921 0
M  V30 10717 C 1020.03 -2.01205 0.109011 0
M  V30 10718 O 1019.08 -2.46854 -0.530987 0
M  V30 10719 C 1020.4 -1.55546 2.57344 0
M  V30 10720 C 1021.94 -1.67498 2.64412 0
M  V30 10721 C 1022.42 -2.24652 3.99119 0
M  V30 10722 N 1023.91 -2.3203 4.00895 0
M  V30 10723 C 1024.64 -2.7725 5.01917 0
M  V30 10724 N 1024.14 -3.22174 6.13332 0
M  V30 10725 N 1025.93 -2.76692 4.89283 0
M  V30 10726 H 1018.08 -0.0502704 2.12341 0
M  V30 10727 H 1020.35 -0.0848933 0.944191 0
M  V30 10728 H 1020.05 -0.899631 3.39999 0
M  V30 10729 H 1019.93 -2.53971 2.78888 0
M  V30 10730 H 1022.31 -2.32196 1.82123 0
M  V30 10731 H 1022.4 -0.676553 2.46691 0
M  V30 10732 H 1022.04 -1.60573 4.81849 0
M  V30 10733 H 1021.97 -3.25221 4.14173 0
M  V30 10734 H 1024.46 -2.00309 3.20444 0
M  V30 10735 H 1024.77 -3.55265 6.86299 0
M  V30 10736 H 1023.12 -3.20116 6.16888 0
M  V30 10737 H 1026.31 -2.40936 4.01332 0
M  V30 10738 H 1026.48 -3.11617 5.68154 0
M  V30 10739 N 1019.89 -1.26353 -0.941956 0
M  V30 10740 C 1020.85 -1.07904 -2.02211 0
M  V30 10741 C 1021.85 -0.0276283 -1.60776 0
M  V30 10742 O 1023.04 -0.270965 -1.7208 0
M  V30 10743 C 1020.17 -0.641084 -3.34818 0
M  V30 10744 H 1021.37 -2.03804 -2.20009 0
M  V30 10745 H 1018.92 -1.08939 -1.12081 0
M  V30 10746 H 1019.66 0.319943 -3.22718 0
M  V30 10747 H 1019.44 -1.40027 -3.66244 0
M  V30 10748 H 1020.93 -0.533826 -4.14174 0
M  V30 10749 N 1021.37 1.14642 -1.08144 0
M  V30 10750 C 1022.64 1.81774 -0.72232 0
M  V30 10751 C 1023.02 1.95587 0.794294 0
M  V30 10752 O 1022.37 1.51361 1.71178 0
M  V30 10753 C 1022.58 3.1763 -1.44611 0
M  V30 10754 C 1023.93 3.93161 -1.60343 0
M  V30 10755 O 1024.95 3.2721 -1.40755 0
M  V30 10756 O 1023.81 5.11422 -1.9264 0
M  V30 10757 H 1020.91 0.785733 -0.257978 0
M  V30 10758 H 1023.45 1.21683 -1.18285 0
M  V30 10759 H 1022.23 3.02723 -2.4794 0
M  V30 10760 H 1021.85 3.85412 -0.976892 0
M  V30 10761 N 1022.85 0.866709 1.31628 0
M  V30 10762 C 1023.78 0.335762 2.31073 0
M  V30 10763 C 1024.76 -0.571597 1.60209 0
M  V30 10764 O 1025.94 -0.489306 1.87935 0
M  V30 10765 C 1023.07 -0.466416 3.44154 0
M  V30 10766 C 1022.03 0.347561 4.26586 0
M  V30 10767 C 1021.35 -0.5801 5.31544 0
M  V30 10768 C 1022.65 1.57986 4.97833 0
M  V30 10769 H 1024.35 1.16673 2.75731 0
M  V30 10770 H 1021.89 0.56248 1.3256 0
M  V30 10771 H 1023.84 -0.84836 4.12772 0
M  V30 10772 H 1022.57 -1.33086 2.98254 0
M  V30 10773 H 1021.23 0.71141 3.59631 0
M  V30 10774 H 1020.88 -1.44174 4.81895 0
M  V30 10775 H 1020.58 -0.0393965 5.87587 0
M  V30 10776 H 1022.1 -0.958958 6.03023 0
M  V30 10777 H 1023.51 1.26954 5.59067 0
M  V30 10778 H 1021.91 2.05939 5.63657 0
M  V30 10779 H 1022.98 2.3345 4.25005 0
M  V30 10780 N 1024.32 -1.44642 0.625825 0
M  V30 10781 C 1025.29 -2.29085 -0.072526 0
M  V30 10782 C 1026.29 -1.40755 -0.777467 0
M  V30 10783 O 1027.48 -1.62684 -0.622861 0
M  V30 10784 C 1024.61 -3.22212 -1.1132 0
M  V30 10785 H 1025.8 -2.92317 0.670124 0
M  V30 10786 H 1023.35 -1.51466 0.38571 0
M  V30 10787 H 1024.09 -2.63819 -1.88601 0
M  V30 10788 H 1023.87 -3.87299 -0.611709 0
M  V30 10789 H 1025.36 -3.8566 -1.60175 0
M  V30 10790 N 1025.8 -0.366053 -1.5329 0
M  V30 10791 C 1026.75 0.480205 -2.25749 0
M  V30 10792 C 1027.72 1.07713 -1.2644 0
M  V30 10793 O 1028.9 1.10953 -1.55222 0
M  V30 10794 C 1026.04 1.61374 -3.05045 0
M  V30 10795 C 1025.16 1.04194 -4.19246 0
M  V30 10796 C 1024.29 2.14462 -4.85983 0
M  V30 10797 C 1023.33 1.5475 -5.92215 0
M  V30 10798 N 1022.47 2.58852 -6.52641 0
M  V30 10799 H 1027.31 -0.144199 -2.97651 0
M  V30 10800 H 1024.84 -0.0829321 -1.46866 0
M  V30 10801 H 1026.8 2.28144 -3.49294 0
M  V30 10802 H 1025.43 2.2088 -2.35397 0
M  V30 10803 H 1024.48 0.264514 -3.79479 0
M  V30 10804 H 1025.8 0.565379 -4.95585 0
M  V30 10805 H 1024.95 2.89051 -5.33418 0
M  V30 10806 H 1023.69 2.6547 -4.09117 0
M  V30 10807 H 1022.69 0.786759 -5.44142 0
M  V30 10808 H 1023.92 1.04566 -6.71001 0
M  V30 10809 H 1021.87 3.09073 -5.78627 0
M  V30 10810 H 1021.78 2.15884 -7.24521 0
M  V30 10811 H 1023.05 3.33142 -7.04724 0
M  V30 10812 N 1027.28 1.57312 -0.0952337 0
M  V30 10813 C 1028.51 1.98409 0.575984 0
M  V30 10814 C 1028.92 0.973168 1.62253 0
M  V30 10815 O 1028.26 -0.0454416 1.83644 0
M  V30 10816 C 1028.32 3.35877 1.28167 0
M  V30 10817 C 1027.99 4.55368 0.385868 0
M  V30 10818 C 1028.98 5.1861 -0.366041 0
M  V30 10819 C 1026.67 5.0138 0.303885 0
M  V30 10820 C 1028.66 6.26233 -1.18791 0
M  V30 10821 C 1026.35 6.0887 -0.521637 0
M  V30 10822 C 1027.35 6.71161 -1.26618 0
M  V30 10823 O 1027.04 7.76577 -2.07804 0
M  V30 10824 H 1026.77 0.657018 0.159068 0
M  V30 10825 H 1029.32 2.04685 -0.171237 0
M  V30 10826 H 1027.55 3.26284 2.07547 0
M  V30 10827 H 1029.24 3.6142 1.84744 0
M  V30 10828 H 1030.01 4.83993 -0.312435 0
M  V30 10829 H 1025.89 4.52657 0.873065 0
M  V30 10830 H 1029.43 6.74784 -1.76955 0
M  V30 10831 H 1025.33 6.42918 -0.576722 0
M  V30 10832 H 1026.09 7.93566 -2.00489 0
M  V30 10833 N 1028.76 -0.17846 1.56586 0
M  V30 10834 C 1030.01 -0.894502 1.8078 0
M  V30 10835 C 1030.32 -1.8372 0.67129 0
M  V30 10836 O 1031.53 -2.59509 0.797971 0
M  V30 10837 C 1029.98 -1.64109 3.20306 0
M  V30 10838 C 1029.59 -0.742387 4.41806 0
M  V30 10839 C 1031.33 -2.34578 3.53798 0
M  V30 10840 C 1029.24 -1.4888 5.72354 0
M  V30 10841 H 1028.17 -0.33776 0.674117 0
M  V30 10842 H 1030.82 -0.14752 1.82906 0
M  V30 10843 H 1029.2 -2.43257 3.12477 0
M  V30 10844 H 1030.38 0.011615 4.60799 0
M  V30 10845 H 1028.69 -0.147705 4.16138 0
M  V30 10846 H 1031.29 -2.91004 4.48577 0
M  V30 10847 H 1031.63 -3.09572 2.78336 0
M  V30 10848 H 1032.17 -1.62381 3.63149 0
M  V30 10849 H 1028.9 -0.781325 6.50827 0
M  V30 10850 H 1028.42 -2.21631 5.57351 0
M  V30 10851 H 1030.1 -2.03819 6.14058 0
M  V30 10852 N 1030.24 -1.51135 -0.446768 0
M  V30 10853 C 1031.48 -1.64989 -1.20656 0
M  V30 10854 C 1031.84 -0.353882 -1.88711 0
M  V30 10855 O 1033.04 -0.368099 -2.66268 0
M  V30 10856 C 1031.31 -2.81371 -2.20375 0
M  V30 10857 S 1032.87 -3.15501 -3.04967 0
M  V30 10858 H 1029.69 -0.581372 -0.409301 0
M  V30 10859 H 1032.29 -1.89008 -0.499613 0
M  V30 10860 H 1030.99 -3.73988 -1.69001 0
M  V30 10861 H 1030.53 -2.59512 -2.95664 0
M  V30 10862 H 1032.54 -2.61205 -4.21884 0
M  V30 10863 N 1031.71 0.701592 -1.41122 0
M  V30 10864 C 1032.62 1.84548 -1.44841 0
M  V30 10865 C 1033.64 1.70654 -0.339594 0
M  V30 10866 O 1034.82 1.92675 -0.586378 0
M  V30 10867 C 1031.88 3.20477 -1.3227 0
M  V30 10868 C 1030.94 3.46524 -2.53415 0
M  V30 10869 C 1030.17 4.75968 -2.41434 0
M  V30 10870 O 1030.4 5.52037 -1.43566 0
M  V30 10871 O 1029.33 5.02664 -3.31078 0
M  V30 10872 H 1033.16 1.84367 -2.41335 0
M  V30 10873 H 1030.74 0.853863 -1.22595 0
M  V30 10874 H 1032.62 4.01642 -1.2752 0
M  V30 10875 H 1031.3 3.21355 -0.388889 0
M  V30 10876 H 1030.21 2.65313 -2.63742 0
M  V30 10877 H 1031.54 3.50455 -3.45604 0
M  V30 10878 N 1033.19 1.2685 0.935242 0
M  V30 10879 C 1034.14 1.08746 2.05614 0
M  V30 10880 C 1035.13 0.012681 1.69395 0
M  V30 10881 O 1036.34 0.169822 1.79197 0
M  V30 10882 H 1032.71 0.33485 0.673335 0
M  V30 10883 H 1034.69 2.03725 2.18033 0
M  V30 10884 C 1033.43 0.74346 3.39659 0
M  V30 10885 H 1032.76 1.56236 3.68008 0
M  V30 10886 H 1034.2 0.656607 4.18885 0
M  V30 10887 C 1032.66 -0.551751 3.32351 0
M  V30 10888 O 1033.19 -1.58836 3.68963 0
M  V30 10889 N 1031.39 -0.544583 2.85452 0
M  V30 10890 H 1030.94 0.29939 2.55854 0
M  V30 10891 H 1030.9 -1.41129 2.80945 0
M  V30 10892 N 1034.67 -1.14067 1.0875 0
M  V30 10893 C 1035.6 -2.18926 0.67852 0
M  V30 10894 C 1036.62 -1.60441 -0.276163 0
M  V30 10895 O 1037.8 -1.78388 -0.0632788 0
M  V30 10896 C 1034.9 -3.38893 -0.0218852 0
M  V30 10897 C 1034.08 -4.26901 0.952582 0
M  V30 10898 C 1033.14 -5.25418 0.286859 0
M  V30 10899 O 1032.16 -5.61512 0.932354 0
M  V30 10900 N 1033.36 -5.72476 -0.961831 0
M  V30 10901 H 1036.13 -2.54629 1.58063 0
M  V30 10902 H 1033.69 -1.29321 0.974042 0
M  V30 10903 H 1035.68 -4.01864 -0.478278 0
M  V30 10904 H 1034.25 -3.01486 -0.826141 0
M  V30 10905 H 1033.47 -3.60812 1.58772 0
M  V30 10906 H 1034.76 -4.82563 1.61279 0
M  V30 10907 H 1034.16 -5.45287 -1.50594 0
M  V30 10908 H 1032.72 -6.37418 -1.36166 0
M  V30 10909 N 1036.15 -0.873678 -1.31166 0
M  V30 10910 C 1037.43 -0.40698 -1.91319 0
M  V30 10911 C 1037.81 1.1113 -1.79481 0
M  V30 10912 O 1037.15 1.94155 -1.20483 0
M  V30 10913 C 1037.36 -0.892484 -3.37396 0
M  V30 10914 C 1038.71 -0.920795 -4.14496 0
M  V30 10915 O 1039.74 -0.838386 -3.46193 0
M  V30 10916 O 1038.59 -1.04069 -5.365 0
M  V30 10917 H 1035.69 -0.122439 -0.817886 0
M  V30 10918 H 1038.23 -0.961835 -1.3981 0
M  V30 10919 H 1037.01 -1.93613 -3.40044 0
M  V30 10920 H 1036.63 -0.31615 -3.96341 0
M  V30 10921 N 1037.63 1.44308 -0.633487 0
M  V30 10922 C 1038.85 2.06897 -0.144347 0
M  V30 10923 C 1039.28 1.47045 1.173 0
M  V30 10924 O 1038.63 0.572806 1.72013 0
M  V30 10925 C 1038.68 3.60571 -0.0456324 0
M  V30 10926 O 1037.79 4.0015 0.997682 0
M  V30 10927 H 1037.13 0.658427 -0.0858499 0
M  V30 10928 H 1039.66 1.85142 -0.870833 0
M  V30 10929 H 1039.67 4.07745 0.144178 0
M  V30 10930 H 1038.34 4.03515 -1.0074 0
M  V30 10931 H 1036.92 3.64603 0.782252 0
M  V30 10932 N 1039.1 0.374177 1.53094 0
M  V30 10933 C 1040.35 -0.213981 2.00562 0
M  V30 10934 C 1040.67 -1.4916 1.26533 0
M  V30 10935 O 1041.87 -2.15889 1.64634 0
M  V30 10936 C 1040.33 -0.431876 3.57299 0
M  V30 10937 C 1039.94 0.831615 4.40214 0
M  V30 10938 C 1041.68 -0.977222 4.13099 0
M  V30 10939 C 1039.59 0.582831 5.88521 0
M  V30 10940 H 1038.52 -0.0837386 0.749336 0
M  V30 10941 H 1041.17 0.494245 1.76719 0
M  V30 10942 H 1039.55 -1.20158 3.7733 0
M  V30 10943 H 1040.72 1.60477 4.31953 0
M  V30 10944 H 1039.04 1.30081 3.9556 0
M  V30 10945 H 1041.64 -1.17881 5.21544 0
M  V30 10946 H 1041.98 -1.94189 3.68234 0
M  V30 10947 H 1042.51 -0.267473 3.969 0
M  V30 10948 H 1039.25 1.51807 6.37679 0
M  V30 10949 H 1038.77 -0.151666 5.99608 0
M  V30 10950 H 1040.45 0.211604 6.46654 0
M  V30 10951 N 1040.58 -1.57259 0.103575 0
M  V30 10952 C 1041.81 -1.99424 -0.569638 0
M  V30 10953 C 1042.23 -0.982475 -1.60403 0
M  V30 10954 O 1041.59 0.0479231 -1.81237 0
M  V30 10955 C 1041.64 -3.40527 -1.18633 0
M  V30 10956 O 1040.74 -3.42167 -2.30208 0
M  V30 10957 H 1040.08 -0.648251 -0.143759 0
M  V30 10958 H 1042.61 -2.03739 0.187493 0
M  V30 10959 H 1042.62 -3.78404 -1.5256 0
M  V30 10960 H 1041.3 -4.13686 -0.428582 0
M  V30 10961 H 1039.88 -3.16093 -1.97837 0
M  V30 10962 N 1042.06 0.170153 -1.56679 0
M  V30 10963 C 1043.29 0.90618 -1.86556 0
M  V30 10964 C 1043.71 1.74986 -0.690044 0
M  V30 10965 O 1043.07 1.77672 0.360862 0
M  V30 10966 C 1043.12 1.75777 -3.14857 0
M  V30 10967 O 1042.22 2.85952 -2.97162 0
M  V30 10968 H 1041.56 0.253781 -0.613589 0
M  V30 10969 H 1044.09 0.167943 -2.0391 0
M  V30 10970 H 1044.1 2.15747 -3.46291 0
M  V30 10971 H 1042.78 1.13807 -4.00026 0
M  V30 10972 H 1041.35 2.49557 -2.77084 0
M  V30 10973 N 1043.54 1.5137 0.438746 0
M  V30 10974 C 1044.49 1.72582 1.53245 0
M  V30 10975 C 1045.46 0.567488 1.56105 0
M  V30 10976 O 1046.64 0.80176 1.73137 0
M  V30 10977 C 1043.78 1.85551 2.90972 0
M  V30 10978 C 1042.89 3.13094 2.97652 0
M  V30 10979 C 1042.03 3.16666 4.26493 0
M  V30 10980 C 1041.07 4.38529 4.27035 0
M  V30 10981 N 1040.2 4.39659 5.47398 0
M  V30 10982 H 1045.04 2.65941 1.3446 0
M  V30 10983 H 1042.58 1.31801 0.653206 0
M  V30 10984 H 1044.54 1.91053 3.70884 0
M  V30 10985 H 1043.17 0.956025 3.08318 0
M  V30 10986 H 1042.22 3.16909 2.10412 0
M  V30 10987 H 1043.53 4.03009 2.93914 0
M  V30 10988 H 1042.69 3.21075 5.14777 0
M  V30 10989 H 1041.43 2.24637 4.32885 0
M  V30 10990 H 1040.43 4.34297 3.37144 0
M  V30 10991 H 1041.66 5.31821 4.22307 0
M  V30 10992 H 1039.6 3.50499 5.54514 0
M  V30 10993 H 1039.52 5.23382 5.45534 0
M  V30 10994 H 1040.79 4.48259 6.37718 0
M  V30 10995 N 1045.02 -0.694098 1.41492 0
M  V30 10996 C 1045.95 -1.82042 1.46229 0
M  V30 10997 C 1046.93 -1.67047 0.320803 0
M  V30 10998 O 1048.11 -1.86758 0.53245 0
M  V30 10999 C 1045.24 -3.2019 1.34519 0
M  V30 11000 C 1044.2 -3.49892 2.46495 0
M  V30 11001 C 1043.52 -4.87411 2.1985 0
M  V30 11002 C 1044.82 -3.4872 3.88834 0
M  V30 11003 H 1046.52 -1.78335 2.40493 0
M  V30 11004 H 1044.06 -0.856566 1.15754 0
M  V30 11005 H 1046.02 -3.98699 1.36445 0
M  V30 11006 H 1044.74 -3.24527 0.367406 0
M  V30 11007 H 1043.4 -2.73734 2.43854 0
M  V30 11008 H 1043.05 -4.88375 1.20411 0
M  V30 11009 H 1042.75 -5.08248 2.94885 0
M  V30 11010 H 1044.27 -5.68228 2.23494 0
M  V30 11011 H 1045.68 -4.1723 3.93182 0
M  V30 11012 H 1044.08 -3.81089 4.63564 0
M  V30 11013 H 1045.15 -2.47665 4.16881 0
M  V30 11014 N 1046.49 -1.27344 -0.928501 0
M  V30 11015 C 1047.44 -1.10001 -2.029 0
M  V30 11016 C 1048.41 -0.00131084 -1.661 0
M  V30 11017 O 1049.6 -0.163485 -1.90098 0
M  V30 11018 C 1046.74 -0.7524 -3.36798 0
M  V30 11019 C 1045.85 -1.92865 -3.86558 0
M  V30 11020 C 1044.98 -1.52299 -5.08899 0
M  V30 11021 C 1044.02 -2.66677 -5.50953 0
M  V30 11022 N 1043.16 -2.26706 -6.64491 0
M  V30 11023 H 1048 -2.0417 -2.17068 0
M  V30 11024 H 1045.54 -1.01637 -1.0634 0
M  V30 11025 H 1047.5 -0.531687 -4.13798 0
M  V30 11026 H 1046.13 0.15234 -3.2244 0
M  V30 11027 H 1045.18 -2.26192 -3.05845 0
M  V30 11028 H 1046.49 -2.78668 -4.13698 0
M  V30 11029 H 1045.64 -1.26348 -5.93398 0
M  V30 11030 H 1044.38 -0.636042 -4.83535 0
M  V30 11031 H 1043.39 -2.93344 -4.65004 0
M  V30 11032 H 1044.61 -3.55992 -5.78313 0
M  V30 11033 H 1042.56 -1.40462 -6.40786 0
M  V30 11034 H 1042.48 -3.06049 -6.91281 0
M  V30 11035 H 1043.74 -2.04 -7.52333 0
M  V30 11036 N 1047.97 1.13488 -1.09353 0
M  V30 11037 C 1048.88 2.2248 -0.744307 0
M  V30 11038 C 1049.9 1.72145 0.253404 0
M  V30 11039 O 1051.07 2.01176 0.0949339 0
M  V30 11040 C 1048.14 3.46286 -0.16928 0
M  V30 11041 C 1047.2 4.11516 -1.22284 0
M  V30 11042 C 1046.43 5.29412 -0.675161 0
M  V30 11043 O 1046.66 5.68185 0.502182 0
M  V30 11044 O 1045.59 5.8467 -1.42983 0
M  V30 11045 H 1049.42 2.54723 -1.65378 0
M  V30 11046 H 1047 1.21607 -0.867879 0
M  V30 11047 H 1048.88 4.2114 0.14811 0
M  V30 11048 H 1047.56 3.15745 0.713214 0
M  V30 11049 H 1046.47 3.38492 -1.59292 0
M  V30 11050 H 1047.8 4.46186 -2.07796 0
M  V30 11051 N 1049.45 0.880621 1.30701 0
M  V30 11052 C 1050.69 0.503519 1.98101 0
M  V30 11053 C 1051.06 -0.929075 1.68024 0
M  V30 11054 O 1052.26 -1.41208 2.28722 0
M  V30 11055 C 1050.53 0.765652 3.49102 0
M  V30 11056 S 1052.09 0.490001 4.36056 0
M  V30 11057 H 1048.9 0.187522 0.685825 0
M  V30 11058 H 1051.51 1.13895 1.58897 0
M  V30 11059 H 1050.21 1.80688 3.68484 0
M  V30 11060 H 1049.74 0.117616 3.93224 0
M  V30 11061 H 1051.76 -0.673236 4.91612 0
M  V30 11062 N 1050.93 -1.4397 0.641131 0
M  V30 11063 C 1052.17 -2.03826 0.153071 0
M  V30 11064 C 1052.53 -1.4941 -1.20585 0
M  V30 11065 O 1053.73 -2.00832 -1.78661 0
M  V30 11066 C 1052.01 -3.57085 0.149914 0
M  V30 11067 S 1053.56 -4.37956 -0.272065 0
M  V30 11068 H 1050.38 -0.70793 0.0659981 0
M  V30 11069 H 1052.98 -1.76211 0.846761 0
M  V30 11070 H 1051.69 -3.94194 1.14188 0
M  V30 11071 H 1051.22 -3.89326 -0.564703 0
M  V30 11072 H 1053.23 -4.72542 -1.5139 0
M  V30 11073 N 1052.41 -0.382291 -1.52893 0
M  V30 11074 C 1053.32 0.463745 -2.29971 0
M  V30 11075 C 1054.33 1.07777 -1.36602 0
M  V30 11076 O 1055.51 1.0851 -1.69669 0
M  V30 11077 C 1052.57 1.57938 -3.08637 0
M  V30 11078 C 1051.64 0.991182 -4.17701 0
M  V30 11079 C 1050.87 2.05365 -4.92606 0
M  V30 11080 O 1051.09 3.26757 -4.67532 0
M  V30 11081 O 1050.03 1.67487 -5.78128 0
M  V30 11082 H 1053.85 -0.163962 -3.03257 0
M  V30 11083 H 1051.44 -0.146199 -1.48683 0
M  V30 11084 H 1053.32 2.22765 -3.57706 0
M  V30 11085 H 1051.99 2.19218 -2.3817 0
M  V30 11086 H 1050.9 0.306364 -3.72843 0
M  V30 11087 H 1052.23 0.422699 -4.90382 0
M  V30 11088 N 1053.89 1.57202 -0.111913 0
M  V30 11089 C 1054.83 2.14936 0.840908 0
M  V30 11090 C 1055.8 1.07242 1.2684 0
M  V30 11091 O 1056.99 1.35114 1.34718 0
M  V30 11092 C 1054.13 2.74743 2.0883 0
M  V30 11093 C 1053.24 3.96723 1.70982 0
M  V30 11094 C 1052.38 4.4464 2.90634 0
M  V30 11095 C 1051.41 5.59169 2.48992 0
M  V30 11096 N 1050.55 6.01862 3.61534 0
M  V30 11097 H 1055.39 2.96034 0.341735 0
M  V30 11098 H 1052.93 1.4626 0.156993 0
M  V30 11099 H 1054.89 3.07546 2.81907 0
M  V30 11100 H 1053.52 1.96346 2.56218 0
M  V30 11101 H 1052.57 3.70127 0.878072 0
M  V30 11102 H 1053.88 4.79795 1.36373 0
M  V30 11103 H 1053.03 4.79315 3.71944 0
M  V30 11104 H 1051.77 3.60503 3.28464 0
M  V30 11105 H 1050.78 5.24106 1.66113 0
M  V30 11106 H 1052 6.45067 2.12287 0
M  V30 11107 H 1049.95 5.20667 3.99051 0
M  V30 11108 H 1049.87 6.79772 3.30827 0
M  V30 11109 H 1051.13 6.41172 4.43305 0
M  V30 11110 N 1055.36 -0.161842 1.56767 0
M  V30 11111 C 1056.77 -0.723385 1.72116 0
M  V30 11112 C 1057.13 -1.82355 0.723961 0
M  V30 11113 O 1056.25 -2.16107 -0.112643 0
M  V30 11114 C 1056.85 -1.31895 3.12072 0
M  V30 11115 C 1055.4 -1.82722 3.29074 0
M  V30 11116 C 1054.55 -0.709863 2.6806 0
M  V30 11117 H 1057.5 0.0636647 1.58572 0
M  V30 11118 H 1057.52 -2.18871 3.11249 0
M  V30 11119 H 1057.04 -0.51801 3.84627 0
M  V30 11120 H 1055.14 -2.6543 2.61491 0
M  V30 11121 H 1055.25 -1.96614 4.36898 0
M  V30 11122 H 1053.61 -1.13273 2.28126 0
M  V30 11123 H 1054.4 0.0793884 3.43208 0
M  V30 11124 N 1056.84 -1.516 -0.430713 0
M  V30 11125 C 1057.77 -1.76342 -1.53054 0
M  V30 11126 C 1058.75 -0.61349 -1.58652 0
M  V30 11127 O 1059.94 -0.856888 -1.74273 0
M  V30 11128 C 1057.07 -1.8945 -2.91077 0
M  V30 11129 C 1056.02 -3.04928 -3.00339 0
M  V30 11130 C 1055.35 -3.03228 -4.40405 0
M  V30 11131 C 1056.65 -4.44777 -2.73808 0
M  V30 11132 H 1058.34 -2.68435 -1.326 0
M  V30 11133 H 1055.89 -1.29171 -0.636466 0
M  V30 11134 H 1057.84 -2.05343 -3.67984 0
M  V30 11135 H 1056.56 -0.940114 -3.12777 0
M  V30 11136 H 1055.22 -2.88751 -2.25872 0
M  V30 11137 H 1054.87 -2.05553 -4.59083 0
M  V30 11138 H 1054.57 -3.80776 -4.47531 0
M  V30 11139 H 1056.1 -3.21222 -5.19277 0
M  V30 11140 H 1057.51 -4.6127 -3.40445 0
M  V30 11141 H 1055.91 -5.2408 -2.92335 0
M  V30 11142 H 1056.98 -4.54358 -1.69372 0
M  V30 11143 N 1058.32 0.686584 -1.41858 0
M  V30 11144 C 1059.25 1.81264 -1.47193 0
M  V30 11145 C 1060.23 1.66875 -0.329657 0
M  V30 11146 O 1061.42 1.86473 -0.542347 0
M  V30 11147 C 1058.55 3.19472 -1.36216 0
M  V30 11148 C 1057.5 3.4858 -2.48347 0
M  V30 11149 C 1056.83 4.86239 -2.22432 0
M  V30 11150 C 1058.13 3.46653 -3.90678 0
M  V30 11151 H 1059.82 1.77057 -2.41436 0
M  V30 11152 H 1057.37 0.850415 -1.16206 0
M  V30 11153 H 1059.32 3.97969 -1.38558 0
M  V30 11154 H 1058.04 3.24327 -0.384611 0
M  V30 11155 H 1056.7 2.72437 -2.45303 0
M  V30 11156 H 1056.35 4.8773 -1.22999 0
M  V30 11157 H 1056.05 5.06677 -2.97577 0
M  V30 11158 H 1057.57 5.67034 -2.26505 0
M  V30 11159 H 1058.99 4.15139 -3.95389 0
M  V30 11160 H 1057.38 3.78625 -4.65578 0
M  V30 11161 H 1058.45 2.45451 -4.18189 0
M  V30 11162 N 1059.8 1.27835 0.921735 0
M  V30 11163 C 1060.71 1.12904 2.05645 0
M  V30 11164 C 1061.72 0.0575704 1.73905 0
M  V30 11165 O 1062.9 0.265261 1.99645 0
M  V30 11166 C 1059.96 0.783957 3.3772 0
M  V30 11167 C 1059.03 1.93694 3.8312 0
M  V30 11168 C 1058.26 1.60823 5.08893 0
M  V30 11169 O 1058.48 0.518873 5.68035 0
M  V30 11170 O 1057.42 2.44932 5.49811 0
M  V30 11171 H 1061.24 2.08143 2.21157 0
M  V30 11172 H 1058.83 1.07078 1.04185 0
M  V30 11173 H 1060.71 0.605107 4.17033 0
M  V30 11174 H 1059.38 -0.138849 3.23402 0
M  V30 11175 H 1058.29 2.17089 3.04669 0
M  V30 11176 H 1059.62 2.84016 4.0199 0
M  V30 11177 N 1061.28 -1.12907 1.09954 0
M  V30 11178 C 1062.22 -2.18485 0.743848 0
M  V30 11179 C 1063.19 -1.63766 -0.277494 0
M  V30 11180 O 1064.38 -1.90146 -0.157899 0
M  V30 11181 C 1061.52 -3.44649 0.176437 0
M  V30 11182 C 1060.63 -4.13445 1.25248 0
M  V30 11183 C 1059.77 -5.27242 0.647242 0
M  V30 11184 C 1058.8 -5.87897 1.70421 0
M  V30 11185 N 1057.94 -6.93116 1.1196 0
M  V30 11186 H 1062.78 -2.48257 1.64841 0
M  V30 11187 H 1060.32 -1.21891 0.823471 0
M  V30 11188 H 1062.28 -4.16852 -0.170384 0
M  V30 11189 H 1060.91 -3.15309 -0.69137 0
M  V30 11190 H 1059.96 -3.39471 1.7165 0
M  V30 11191 H 1061.27 -4.54601 2.05279 0
M  V30 11192 H 1060.42 -6.06186 0.249579 0
M  V30 11193 H 1059.16 -4.87351 -0.184556 0
M  V30 11194 H 1058.17 -5.07643 2.11136 0
M  V30 11195 H 1059.39 -6.2986 2.53877 0
M  V30 11196 H 1057.34 -6.55271 0.309181 0
M  V30 11197 H 1057.26 -7.32843 1.85681 0
M  V30 11198 H 1058.52 -7.759 0.748326 0
M  V30 11199 N 1062.75 -0.88754 -1.30232 0
M  V30 11200 C 1063.98 -0.521562 -2.00735 0
M  V30 11201 C 1064.4 0.883247 -1.66073 0
M  V30 11202 O 1063.76 1.58581 -0.878731 0
M  V30 11203 C 1063.81 -0.706521 -3.53611 0
M  V30 11204 O 1062.91 0.246447 -4.11663 0
M  V30 11205 H 1062.25 -0.205216 -0.631492 0
M  V30 11206 H 1064.78 -1.19579 -1.66018 0
M  V30 11207 H 1064.79 -0.606501 -4.03467 0
M  V30 11208 H 1063.47 -1.73076 -3.78177 0
M  V30 11209 H 1062.05 0.0999062 -3.72766 0
M  V30 11210 N 1064.23 1.43628 -0.648757 0
M  V30 11211 C 1065.18 2.27899 0.0677939 0
M  V30 11212 C 1066.17 1.39653 0.799115 0
M  V30 11213 O 1067.36 1.6332 0.682317 0
M  V30 11214 C 1064.49 3.27276 1.0366 0
M  V30 11215 C 1063.57 4.23009 0.303982 0
M  V30 11216 N 1063.96 5.01248 -0.677056 0
M  V30 11217 C 1062.26 4.42645 0.546041 0
M  V30 11218 C 1062.96 5.70982 -1.11151 0
M  V30 11219 N 1061.94 5.41762 -0.446669 0
M  V30 11220 H 1065.74 2.85804 -0.685073 0
M  V30 11221 H 1063.26 1.55277 -0.475674 0
M  V30 11222 H 1065.25 3.86423 1.5647 0
M  V30 11223 H 1063.91 2.70932 1.78958 0
M  V30 11224 H 1064.92 5.07028 -1.0556 0
M  V30 11225 H 1061.6 3.97377 1.28053 0
M  V30 11226 H 1062.99 6.43794 -1.923 0
M  V30 11227 N 1065.71 0.390394 1.52688 0
M  V30 11228 C 1066.95 -0.191207 2.03504 0
M  V30 11229 C 1067.31 -1.43952 1.27051 0
M  V30 11230 O 1068.52 -2.09835 1.67996 0
M  V30 11231 C 1066.79 -0.451552 3.54536 0
M  V30 11232 S 1068.35 -1.00328 4.27176 0
M  V30 11233 H 1065.16 -0.0537587 0.708965 0
M  V30 11234 H 1067.77 0.538993 1.87923 0
M  V30 11235 H 1066.47 0.464061 4.07768 0
M  V30 11236 H 1066 -1.21015 3.74325 0
M  V30 11237 H 1068.02 -2.28555 4.40428 0
M  V30 11238 N 1067.19 -1.57141 0.120249 0
M  V30 11239 C 1068.44 -1.94413 -0.53727 0
M  V30 11240 C 1068.75 -1.00594 -1.67751 0
M  V30 11241 O 1069.96 -1.27336 -2.39787 0
M  V30 11242 C 1068.41 -3.45521 -1.00714 0
M  V30 11243 C 1068.02 -4.47878 0.104706 0
M  V30 11244 C 1069.76 -3.9171 -1.63596 0
M  V30 11245 C 1067.67 -5.90165 -0.381932 0
M  V30 11246 H 1066.6 -0.725745 -0.204475 0
M  V30 11247 H 1069.25 -1.82404 0.200302 0
M  V30 11248 H 1067.63 -3.52769 -1.79917 0
M  V30 11249 H 1068.81 -4.523 0.881002 0
M  V30 11250 H 1067.12 -4.11448 0.640264 0
M  V30 11251 H 1069.72 -4.95433 -2.01122 0
M  V30 11252 H 1070.06 -3.31756 -2.51483 0
M  V30 11253 H 1070.6 -3.87268 -0.909319 0
M  V30 11254 H 1067.34 -6.53877 0.460921 0
M  V30 11255 H 1066.86 -5.89161 -1.12468 0
M  V30 11256 H 1068.53 -6.41488 -0.842748 0
M  V30 11257 N 1068.67 0.153526 -1.5685 0
M  V30 11258 C 1069.63 1.17362 -1.96873 0
M  V30 11259 C 1070.63 1.36219 -0.854456 0
M  V30 11260 O 1071.82 1.33322 -1.1212 0
M  V30 11261 C 1068.95 2.53523 -2.27901 0
M  V30 11262 H 1070.14 0.830432 -2.88173 0
M  V30 11263 H 1067.7 0.396633 -1.51184 0
M  V30 11264 H 1068.43 2.92824 -1.39371 0
M  V30 11265 H 1068.22 2.41198 -3.09137 0
M  V30 11266 H 1069.71 3.27006 -2.59725 0
M  V30 11267 N 1070.14 1.51827 0.422667 0
M  V30 11268 C 1071.05 1.77066 1.53899 0
M  V30 11269 C 1072.07 0.655541 1.61179 0
M  V30 11270 O 1073.25 0.939448 1.78147 0
M  V30 11271 C 1070.31 1.90372 2.89758 0
M  V30 11272 C 1069.37 3.14256 2.92475 0
M  V30 11273 C 1068.61 3.26918 4.21853 0
M  V30 11274 O 1068.83 2.45164 5.15025 0
M  V30 11275 O 1067.76 4.19989 4.31153 0
M  V30 11276 H 1071.59 2.71791 1.35511 0
M  V30 11277 H 1069.17 1.36506 0.607165 0
M  V30 11278 H 1071.06 2.01024 3.70361 0
M  V30 11279 H 1069.73 0.988347 3.08242 0
M  V30 11280 H 1068.64 3.09072 2.10773 0
M  V30 11281 H 1069.97 4.0553 2.78937 0
M  V30 11282 N 1071.62 -0.679052 1.4222 0
M  V30 11283 C 1072.87 -1.44125 1.42674 0
M  V30 11284 C 1073.2 -1.94156 0.041438 0
M  V30 11285 O 1072.48 -1.70628 -0.93361 0
M  V30 11286 C 1072.76 -2.64133 2.44756 0
M  V30 11287 C 1072.61 -2.19761 3.9246 0
M  V30 11288 C 1073.93 -3.66347 2.43881 0
M  V30 11289 H 1071.05 -0.522729 0.519541 0
M  V30 11290 H 1073.69 -0.772067 1.73606 0
M  V30 11291 H 1071.84 -3.21225 2.1851 0
M  V30 11292 H 1073.51 -1.67869 4.29671 0
M  V30 11293 H 1071.76 -1.51377 4.06531 0
M  V30 11294 H 1072.43 -3.05944 4.59459 0
M  V30 11295 H 1074.9 -3.18963 2.67211 0
M  V30 11296 H 1073.78 -4.47902 3.17293 0
M  V30 11297 H 1074.04 -4.17183 1.46325 0
M  V30 11298 N 1073.1 -1.28322 -0.914942 0
M  V30 11299 C 1074.01 -1.13993 -2.05043 0
M  V30 11300 C 1075.03 -0.0667921 -1.73872 0
M  V30 11301 O 1076.2 -0.275845 -1.99502 0
M  V30 11302 C 1073.27 -0.801856 -3.373 0
M  V30 11303 C 1072.33 -1.95723 -3.82088 0
M  V30 11304 C 1071.56 -1.63519 -5.08033 0
M  V30 11305 O 1071.78 -0.54899 -5.67752 0
M  V30 11306 O 1070.72 -2.47844 -5.48504 0
M  V30 11307 H 1074.54 -2.09313 -2.2005 0
M  V30 11308 H 1072.13 -1.0763 -1.03616 0
M  V30 11309 H 1074.01 -0.627214 -4.16706 0
M  V30 11310 H 1072.69 0.121696 -3.23471 0
M  V30 11311 H 1071.59 -2.18702 -3.03514 0
M  V30 11312 H 1072.93 -2.86144 -4.00478 0
M  V30 11313 N 1074.58 1.12322 -1.10551 0
M  V30 11314 C 1075.53 2.20166 -0.750317 0
M  V30 11315 C 1076.52 1.67484 0.254066 0
M  V30 11316 O 1077.73 1.79637 0.114309 0
M  V30 11317 H 1074.1 0.717642 -0.22471 0
M  V30 11318 H 1076.07 2.47378 -1.66873 0
M  V30 11319 C 1074.82 3.47126 -0.199651 0
M  V30 11320 H 1074.14 3.88011 -0.963735 0
M  V30 11321 H 1075.58 4.23999 0.0108033 0
M  V30 11322 C 1074.04 3.19526 1.06792 0
M  V30 11323 O 1074.57 3.39368 2.14923 0
M  V30 11324 N 1072.78 2.73324 0.987032 0
M  V30 11325 H 1072.33 2.57378 0.106997 0
M  V30 11326 H 1072.28 2.55234 1.83584 0
M  V30 11327 N 1076.06 0.894434 1.2976 0
M  V30 11328 C 1077.33 0.437365 1.90648 0
M  V30 11329 C 1077.71 -1.08261 1.81226 0
M  V30 11330 O 1077.06 -1.92213 1.23557 0
M  V30 11331 C 1077.27 0.946047 3.35933 0
M  V30 11332 C 1078.62 0.986621 4.12978 0
M  V30 11333 O 1079.64 0.893356 3.44815 0
M  V30 11334 O 1078.5 1.12591 5.34776 0
M  V30 11335 H 1075.6 0.135436 0.815835 0
M  V30 11336 H 1078.14 0.983955 1.38262 0
M  V30 11337 H 1076.91 1.98998 3.3692 0
M  V30 11338 H 1076.54 0.379164 3.95788 0
M  V30 11339 N 1077.53 -1.43282 0.656365 0
M  V30 11340 C 1078.44 -2.34576 -0.033864 0
M  V30 11341 C 1079.46 -1.5406 -0.808793 0
M  V30 11342 O 1080.64 -1.867 -0.755322 0
M  V30 11343 C 1077.7 -3.32378 -0.986197 0
M  V30 11344 C 1076.76 -4.28797 -0.207851 0
M  V30 11345 C 1076 -5.21927 -1.11482 0
M  V30 11346 O 1076.22 -5.19554 -2.35414 0
M  V30 11347 O 1075.15 -5.99045 -0.585536 0
M  V30 11348 H 1078.98 -2.95099 0.717668 0
M  V30 11349 H 1076.56 -1.43475 0.416556 0
M  V30 11350 H 1078.45 -3.9251 -1.53341 0
M  V30 11351 H 1077.12 -2.74354 -1.7179 0
M  V30 11352 H 1076.03 -3.72134 0.383022 0
M  V30 11353 H 1077.36 -4.89811 0.48435 0
M  V30 11354 N 1079.01 -0.398486 -1.52479 0
M  V30 11355 C 1079.95 0.476551 -2.23169 0
M  V30 11356 C 1080.92 1.05665 -1.23587 0
M  V30 11357 O 1082.11 1.10654 -1.52604 0
M  V30 11358 C 1079.24 1.66048 -2.95204 0
M  V30 11359 C 1078.28 1.20478 -4.0913 0
M  V30 11360 S 1079.11 0.178711 -5.35202 0
M  V30 11361 C 1080.27 1.36821 -6.10762 0
M  V30 11362 H 1080.5 -0.123704 -2.97043 0
M  V30 11363 H 1078.04 -0.182722 -1.53315 0
M  V30 11364 H 1079.99 2.33942 -3.37315 0
M  V30 11365 H 1078.66 2.23206 -2.20993 0
M  V30 11366 H 1077.85 2.08901 -4.58668 0
M  V30 11367 H 1077.45 0.604632 -3.6908 0
M  V30 11368 H 1079.74 2.2937 -6.37492 0
M  V30 11369 H 1080.69 0.913579 -7.02182 0
M  V30 11370 H 1081.09 1.58919 -5.41669 0
M  V30 11371 N 1080.49 1.57075 -0.12858 0
M  V30 11372 C 1081.9 1.82468 0.39526 0
M  V30 11373 C 1082.25 1.0463 1.65973 0
M  V30 11374 O 1081.38 0.285835 2.14504 0
M  V30 11375 C 1081.97 3.30976 0.723889 0
M  V30 11376 C 1080.53 3.57016 1.19232 0
M  V30 11377 C 1079.68 2.76534 0.205907 0
M  V30 11378 H 1082.63 1.54711 -0.353571 0
M  V30 11379 H 1082.65 3.46127 1.58039 0
M  V30 11380 H 1082.16 3.87602 -0.196595 0
M  V30 11381 H 1080.26 3.05758 2.12938 0
M  V30 11382 H 1080.38 4.65558 1.13103 0
M  V30 11383 H 1078.74 2.45038 0.694872 0
M  V30 11384 H 1079.52 3.35923 -0.707842 0
M  V30 11385 N 1081.97 -0.145205 1.5693 0
M  V30 11386 C 1082.93 -1.16316 1.97492 0
M  V30 11387 C 1083.93 -1.35764 0.861668 0
M  V30 11388 O 1085.12 -1.32726 1.12825 0
M  V30 11389 C 1082.25 -2.52311 2.29242 0
M  V30 11390 H 1083.45 -0.815138 2.8861 0
M  V30 11391 H 1081 -0.38861 1.51392 0
M  V30 11392 H 1081.74 -2.92081 1.40922 0
M  V30 11393 H 1081.52 -2.39555 3.10412 0
M  V30 11394 H 1083.01 -3.25624 2.61456 0
M  V30 11395 N 1083.45 -1.52049 -0.414609 0
M  V30 11396 C 1084.72 -1.56397 -1.17471 0
M  V30 11397 C 1085.1 -0.34171 -2.08316 0
M  V30 11398 O 1084.45 0.6718 -2.18401 0
M  V30 11399 C 1084.66 -2.88983 -1.95678 0
M  V30 11400 C 1086.01 -3.41781 -2.51935 0
M  V30 11401 O 1087.03 -2.90686 -2.05865 0
M  V30 11402 O 1085.89 -4.30989 -3.36022 0
M  V30 11403 H 1082.99 -0.62974 -0.536056 0
M  V30 11404 H 1085.53 -1.64374 -0.421834 0
M  V30 11405 H 1084.31 -3.69392 -1.29094 0
M  V30 11406 H 1083.93 -2.84274 -2.77983 0
M  V30 11407 N 1084.93 0.6715 -1.42579 0
M  V30 11408 C 1085.86 1.79693 -1.49107 0
M  V30 11409 C 1086.84 1.66516 -0.347338 0
M  V30 11410 O 1088.02 1.85887 -0.562094 0
M  V30 11411 C 1085.15 3.1801 -1.39596 0
M  V30 11412 C 1084.11 3.45926 -2.5203 0
M  V30 11413 C 1083.43 4.83852 -2.27577 0
M  V30 11414 C 1084.73 3.4249 -3.94333 0
M  V30 11415 H 1086.43 1.74486 -2.433 0
M  V30 11416 H 1083.97 0.838042 -1.17102 0
M  V30 11417 H 1085.92 3.96478 -1.42771 0
M  V30 11418 H 1084.65 3.23901 -0.418989 0
M  V30 11419 H 1083.31 2.6982 -2.48178 0
M  V30 11420 H 1082.96 4.86398 -1.28165 0
M  V30 11421 H 1082.66 5.03493 -3.02934 0
M  V30 11422 H 1084.18 5.646 -2.32506 0
M  V30 11423 H 1085.59 4.10922 -3.9977 0
M  V30 11424 H 1083.99 3.73666 -4.69568 0
M  V30 11425 H 1085.06 2.41002 -4.20768 0
M  V30 11426 N 1086.4 1.28806 0.908124 0
M  V30 11427 C 1087.81 1.14719 1.47297 0
M  V30 11428 C 1088.17 -0.260763 1.94459 0
M  V30 11429 O 1087.29 -1.15553 1.82966 0
M  V30 11430 C 1087.89 2.07643 2.67712 0
M  V30 11431 C 1086.44 1.97605 3.20358 0
M  V30 11432 C 1085.59 1.99058 1.93058 0
M  V30 11433 H 1088.54 1.41413 0.720283 0
M  V30 11434 H 1088.56 1.64372 3.43165 0
M  V30 11435 H 1088.08 3.10108 2.33355 0
M  V30 11436 H 1086.18 0.981982 3.59427 0
M  V30 11437 H 1086.29 2.84846 3.85226 0
M  V30 11438 H 1084.65 1.43541 2.104 0
M  V30 11439 H 1085.44 3.03212 1.60989 0
M  V30 11440 N 1087.88 -1.11734 1.11145 0
M  V30 11441 C 1089.11 -1.87755 0.881062 0
M  V30 11442 C 1089.53 -1.79461 -0.563496 0
M  V30 11443 O 1088.89 -1.15481 -1.39763 0
M  V30 11444 C 1088.94 -3.34641 1.34342 0
M  V30 11445 O 1088.04 -4.09195 0.513157 0
M  V30 11446 H 1087.38 -0.583111 0.317613 0
M  V30 11447 H 1089.91 -1.41256 1.48013 0
M  V30 11448 H 1089.92 -3.85486 1.33658 0
M  V30 11449 H 1088.6 -3.39994 2.39534 0
M  V30 11450 H 1087.17 -3.68269 0.585833 0
M  V30 11451 N 1089.36 -0.901303 -1.29284 0
M  V30 11452 C 1090.29 -0.396909 -2.30102 0
M  V30 11453 C 1091.27 0.528919 -1.61668 0
M  V30 11454 O 1092.46 0.439306 -1.89166 0
M  V30 11455 C 1089.59 0.375006 -3.45269 0
M  V30 11456 C 1088.54 -0.46054 -4.25515 0
M  V30 11457 C 1087.87 0.438967 -5.32895 0
M  V30 11458 C 1089.17 -1.7113 -4.93469 0
M  V30 11459 H 1090.86 -1.23943 -2.72541 0
M  V30 11460 H 1088.41 -0.597428 -1.31022 0
M  V30 11461 H 1090.36 0.738622 -4.14876 0
M  V30 11462 H 1089.08 1.25132 -3.01678 0
M  V30 11463 H 1087.74 -0.80651 -3.57618 0
M  V30 11464 H 1087.39 1.31346 -4.85548 0
M  V30 11465 H 1087.09 -0.116406 -5.87485 0
M  V30 11466 H 1088.61 0.79874 -6.05353 0
M  V30 11467 H 1090.03 -1.41732 -5.55504 0
M  V30 11468 H 1088.42 -2.20811 -5.57999 0
M  V30 11469 H 1089.49 -2.44636 -4.18666 0
M  V30 11470 N 1090.84 1.42931 -0.663954 0
M  V30 11471 C 1091.8 2.29197 0.0117626 0
M  V30 11472 C 1092.8 1.42767 0.739875 0
M  V30 11473 O 1093.99 1.64278 0.579509 0
M  V30 11474 C 1091.12 3.2505 1.02738 0
M  V30 11475 H 1092.32 2.90438 -0.747391 0
M  V30 11476 H 1089.87 1.5039 -0.425733 0
M  V30 11477 H 1090.6 2.68726 1.8154 0
M  V30 11478 H 1090.39 3.88785 0.508809 0
M  V30 11479 H 1091.88 3.89771 1.49893 0
M  V30 11480 N 1092.32 0.406567 1.52266 0
M  V30 11481 C 1093.28 -0.408251 2.25535 0
M  V30 11482 C 1094.28 -0.975795 1.27808 0
M  V30 11483 O 1095.47 -0.855077 1.5177 0
M  V30 11484 C 1092.6 -1.57443 3.02365 0
M  V30 11485 H 1093.79 0.233459 2.9899 0
M  V30 11486 H 1091.35 0.159032 1.55489 0
M  V30 11487 H 1092.08 -2.25308 2.33252 0
M  V30 11488 H 1091.87 -1.17399 3.74112 0
M  V30 11489 H 1093.36 -2.15088 3.57948 0
M  V30 11490 N 1093.79 -1.57004 0.136909 0
M  V30 11491 C 1095.07 -1.87375 -0.561233 0
M  V30 11492 C 1095.45 -1.04117 -1.83638 0
M  V30 11493 O 1094.8 -0.125103 -2.28157 0
M  V30 11494 C 1095.01 -3.38829 -0.836426 0
M  V30 11495 C 1096.36 -4.07826 -1.18164 0
M  V30 11496 O 1097.38 -3.4395 -0.92611 0
M  V30 11497 O 1096.24 -5.20614 -1.66204 0
M  V30 11498 H 1093.33 -0.776287 -0.285145 0
M  V30 11499 H 1095.88 -1.68818 0.172761 0
M  V30 11500 H 1094.65 -3.91244 0.066442 0
M  V30 11501 H 1094.28 -3.62879 -1.62496 0
M  V30 11502 N 1095.27 0.136881 -1.57004 0
M  V30 11503 C 1096.52 0.847775 -1.83899 0
M  V30 11504 C 1096.85 1.80709 -0.719332 0
M  V30 11505 O 1096.1 1.93527 0.290838 0
M  V30 11506 C 1096.4 1.64711 -3.17183 0
M  V30 11507 C 1096.07 0.833683 -4.43126 0
M  V30 11508 C 1094.73 0.609306 -4.77327 0
M  V30 11509 C 1097.08 0.265504 -5.20523 0
M  V30 11510 C 1094.41 -0.193793 -5.8638 0
M  V30 11511 C 1096.76 -0.524688 -6.3042 0
M  V30 11512 C 1095.43 -0.759548 -6.63164 0
M  V30 11513 H 1094.7 0.310223 -0.672936 0
M  V30 11514 H 1097.34 0.110937 -1.91178 0
M  V30 11515 H 1095.65 2.45435 -3.054 0
M  V30 11516 H 1097.34 2.20081 -3.3521 0
M  V30 11517 H 1093.93 1.01864 -4.16319 0
M  V30 11518 H 1098.12 0.426109 -4.94467 0
M  V30 11519 H 1093.37 -0.385153 -6.10186 0
M  V30 11520 H 1097.55 -0.972033 -6.89583 0
M  V30 11521 H 1095.18 -1.38369 -7.47501 0
M  V30 11522 N 1096.75 1.52266 0.40654 0
M  V30 11523 C 1098 1.66699 1.15496 0
M  V30 11524 C 1098.33 0.397019 1.90098 0
M  V30 11525 O 1097.6 -0.604646 1.84863 0
M  V30 11526 C 1097.89 2.8907 2.14734 0
M  V30 11527 C 1097.74 4.26123 1.44012 0
M  V30 11528 C 1099.06 3.06966 3.15373 0
M  V30 11529 H 1096.18 0.606642 0.418515 0
M  V30 11530 H 1098.82 1.84826 0.440381 0
M  V30 11531 H 1096.97 2.73745 2.75673 0
M  V30 11532 H 1098.64 4.5318 0.861722 0
M  V30 11533 H 1096.89 4.27406 0.742064 0
M  V30 11534 H 1097.56 5.07799 2.16436 0
M  V30 11535 H 1100.03 3.21205 2.64512 0
M  V30 11536 H 1098.91 3.94097 3.82072 0
M  V30 11537 H 1099.17 2.20395 3.83247 0
M  V30 11538 N 1098.23 -0.663929 1.42933 0
M  V30 11539 C 1099.14 -1.80643 1.49683 0
M  V30 11540 C 1100.15 -1.69694 0.38472 0
M  V30 11541 O 1101.33 -1.91052 0.637256 0
M  V30 11542 C 1098.4 -3.16858 1.4072 0
M  V30 11543 C 1097.46 -3.39684 2.62514 0
M  V30 11544 C 1096.69 -4.69399 2.53969 0
M  V30 11545 O 1096.91 -5.48037 1.58152 0
M  V30 11546 O 1095.85 -4.93709 3.44289 0
M  V30 11547 H 1099.67 -1.77903 2.46138 0
M  V30 11548 H 1097.26 -0.821059 1.24816 0
M  V30 11549 H 1099.14 -3.9812 1.38124 0
M  V30 11550 H 1097.81 -3.20211 0.473954 0
M  V30 11551 H 1096.72 -2.58227 2.70684 0
M  V30 11552 H 1098.05 -3.41169 3.54774 0
M  V30 11553 N 1099.71 -1.29285 -0.901281 0
M  V30 11554 C 1100.93 -1.20169 -1.69039 0
M  V30 11555 C 1101.36 0.234509 -1.86632 0
M  V30 11556 O 1100.71 1.16935 -1.38549 0
M  V30 11557 C 1100.76 -1.91852 -3.05328 0
M  V30 11558 O 1099.87 -1.23448 -3.9349 0
M  V30 11559 H 1099.21 -0.416486 -0.517141 0
M  V30 11560 H 1101.74 -1.70826 -1.12603 0
M  V30 11561 H 1101.75 -2.00244 -3.5548 0
M  V30 11562 H 1100.42 -2.96313 -2.91841 0
M  V30 11563 H 1099 -1.23303 -3.51924 0
M  V30 11564 N 1101.18 1.11143 -1.11736 0
M  V30 11565 C 1102.13 2.17274 -0.778513 0
M  V30 11566 C 1103.1 1.64186 0.251405 0
M  V30 11567 O 1104.29 1.90373 0.127629 0
M  V30 11568 C 1101.43 3.44324 -0.231246 0
M  V30 11569 C 1100.54 4.114 -1.31809 0
M  V30 11570 C 1099.67 5.26146 -0.73104 0
M  V30 11571 C 1098.71 5.85112 -1.79752 0
M  V30 11572 N 1097.85 6.91247 -1.22973 0
M  V30 11573 H 1102.69 2.45603 -1.68769 0
M  V30 11574 H 1100.23 1.20565 -0.842759 0
M  V30 11575 H 1102.19 4.1707 0.104045 0
M  V30 11576 H 1100.82 3.16369 0.641119 0
M  V30 11577 H 1099.87 3.36697 -1.77029 0
M  V30 11578 H 1101.18 4.51278 -2.12485 0
M  V30 11579 H 1100.33 6.05713 -0.345987 0
M  V30 11580 H 1099.07 4.87583 0.107 0
M  V30 11581 H 1098.08 5.0422 -2.19185 0
M  V30 11582 H 1099.3 6.25741 -2.63865 0
M  V30 11583 H 1097.25 6.54696 -0.41339 0
M  V30 11584 H 1097.17 7.29796 -1.97316 0
M  V30 11585 H 1098.43 7.74611 -0.87167 0
M  V30 11586 N 1102.66 0.908147 1.28804 0
M  V30 11587 C 1103.94 0.457561 1.90173 0
M  V30 11588 C 1104.32 -1.06333 1.82364 0
M  V30 11589 O 1103.67 -1.90892 1.25589 0
M  V30 11590 C 1103.88 0.981624 3.34911 0
M  V30 11591 C 1105.23 1.03037 4.11908 0
M  V30 11592 O 1106.25 0.929878 3.43848 0
M  V30 11593 O 1105.11 1.18257 5.33552 0
M  V30 11594 H 1102.2 0.144081 0.814352 0
M  V30 11595 H 1104.75 0.998565 1.37211 0
M  V30 11596 H 1103.52 2.02561 3.34791 0
M  V30 11597 H 1103.14 0.421122 3.95364 0
M  V30 11598 N 1104.14 -1.42577 0.671525 0
M  V30 11599 C 1105.39 -2.01882 0.192716 0
M  V30 11600 C 1105.72 -1.52959 -1.19654 0
M  V30 11601 O 1104.99 -0.730404 -1.80265 0
M  V30 11602 C 1105.28 -3.59404 0.223734 0
M  V30 11603 C 1105.13 -4.18514 1.64821 0
M  V30 11604 C 1106.45 -4.37996 -0.429858 0
M  V30 11605 H 1103.57 -0.733523 0.0715026 0
M  V30 11606 H 1106.21 -1.69641 0.855689 0
M  V30 11607 H 1104.36 -3.87003 -0.340776 0
M  V30 11608 H 1106.03 -4.01881 2.26472 0
M  V30 11609 H 1104.28 -3.74467 2.1899 0
M  V30 11610 H 1104.95 -5.27643 1.62162 0
M  V30 11611 H 1107.42 -4.16069 0.0506433 0
M  V30 11612 H 1106.3 -5.476 -0.377503 0
M  V30 11613 H 1106.56 -4.15625 -1.50693 0
M  V30 11614 N 1105.62 -0.414636 -1.52048 0
M  V30 11615 C 1106.86 0.158807 -2.03782 0
M  V30 11616 C 1107.22 1.41912 -1.29325 0
M  V30 11617 O 1108.42 2.07136 -1.71313 0
M  V30 11618 C 1106.69 0.395092 -3.55209 0
M  V30 11619 S 1108.25 0.935193 -4.28719 0
M  V30 11620 H 1105.07 0.0424729 -0.70973 0
M  V30 11621 H 1107.67 -0.568822 -1.87042 0
M  V30 11622 H 1106.38 -0.528875 -4.06978 0
M  V30 11623 H 1105.91 1.15044 -3.76203 0
M  V30 11624 H 1107.92 2.21519 -4.44009 0
M  V30 11625 N 1107.1 1.56929 -0.145233 0
M  V30 11626 C 1108.04 2.16671 0.795128 0
M  V30 11627 C 1109.01 1.09908 1.24537 0
M  V30 11628 O 1110.2 1.37941 1.31821 0
M  V30 11629 C 1107.34 2.79111 2.02956 0
M  V30 11630 C 1106.45 4.00261 1.62528 0
M  V30 11631 C 1105.59 4.50705 2.81137 0
M  V30 11632 C 1104.63 5.64324 2.37075 0
M  V30 11633 N 1103.76 6.09395 3.48687 0
M  V30 11634 H 1108.6 2.96692 0.278865 0
M  V30 11635 H 1106.14 1.4656 0.125934 0
M  V30 11636 H 1108.1 3.13456 2.7532 0
M  V30 11637 H 1106.73 2.01737 2.51996 0
M  V30 11638 H 1105.78 3.71906 0.799365 0
M  V30 11639 H 1107.09 4.8258 1.26166 0
M  V30 11640 H 1106.25 4.87096 3.61693 0
M  V30 11641 H 1104.98 3.67389 3.20744 0
M  V30 11642 H 1103.99 5.27511 1.54958 0
M  V30 11643 H 1105.21 6.49425 1.98556 0
M  V30 11644 H 1103.16 5.29014 3.87917 0
M  V30 11645 H 1103.08 6.86636 3.16333 0
M  V30 11646 H 1104.35 6.50431 4.29605 0
M  V30 11647 N 1108.58 -0.128553 1.57075 0
M  V30 11648 C 1109.52 -1.17719 2.00611 0
M  V30 11649 C 1110.52 -1.43423 0.90146 0
M  V30 11650 O 1111.72 -1.43498 1.08666 0
M  V30 11651 H 1108.1 -0.396683 0.638864 0
M  V30 11652 H 1110.07 -0.783437 2.87932 0
M  V30 11653 C 1108.82 -2.49826 2.41831 0
M  V30 11654 H 1108.14 -2.30883 3.26394 0
M  V30 11655 H 1109.58 -3.21784 2.761 0
M  V30 11656 C 1108.04 -3.11712 1.27816 0
M  V30 11657 O 1108.57 -3.9736 0.588917 0
M  V30 11658 N 1106.78 -2.71442 1.03767 0
M  V30 11659 H 1106.32 -2.01891 1.59994 0
M  V30 11660 H 1106.28 -3.1318 0.276743 0
M  V30 11661 N 1110.05 -1.5248 -0.398459 0
M  V30 11662 C 1111.28 -1.70677 -1.16417 0
M  V30 11663 C 1111.69 -0.420629 -1.84465 0
M  V30 11664 O 1111.03 0.614013 -1.73135 0
M  V30 11665 C 1111.1 -2.79401 -2.2622 0
M  V30 11666 C 1110.76 -4.20817 -1.78218 0
M  V30 11667 C 1111.76 -5.04298 -1.26409 0
M  V30 11668 C 1109.44 -4.67098 -1.84728 0
M  V30 11669 C 1111.44 -6.32136 -0.817461 0
M  V30 11670 C 1109.12 -5.94923 -1.39676 0
M  V30 11671 C 1110.12 -6.77272 -0.882716 0
M  V30 11672 O 1109.81 -8.02702 -0.438739 0
M  V30 11673 H 1109.54 -0.57503 -0.355411 0
M  V30 11674 H 1112.1 -1.99868 -0.473471 0
M  V30 11675 H 1110.33 -2.4561 -2.98685 0
M  V30 11676 H 1112.01 -2.86093 -2.87933 0
M  V30 11677 H 1112.78 -4.6973 -1.20744 0
M  V30 11678 H 1108.66 -4.03097 -2.23682 0
M  V30 11679 H 1112.2 -6.96361 -0.415548 0
M  V30 11680 H 1108.1 -6.28998 -1.45024 0
M  V30 11681 H 1108.87 -8.16575 -0.561079 0
M  V30 11682 N 1111.53 0.65634 -1.43283 0
M  V30 11683 C 1112.49 1.75117 -1.47874 0
M  V30 11684 C 1113.49 1.56629 -0.363846 0
M  V30 11685 O 1114.68 1.62584 -0.625464 0
M  V30 11686 C 1111.82 3.13957 -1.32831 0
M  V30 11687 H 1113.01 1.72429 -2.45374 0
M  V30 11688 H 1110.56 0.867704 -1.30002 0
M  V30 11689 H 1111.3 3.22259 -0.36326 0
M  V30 11690 H 1111.08 3.28781 -2.13649 0
M  V30 11691 H 1112.57 3.93799 -1.38969 0
M  V30 11692 N 1113.01 1.29761 0.894412 0
M  V30 11693 C 1113.92 1.1724 2.03204 0
M  V30 11694 C 1114.94 0.0944452 1.73743 0
M  V30 11695 O 1116.11 0.307549 1.99038 0
M  V30 11696 C 1113.18 0.855416 3.35981 0
M  V30 11697 C 1112.24 2.01777 3.78926 0
M  V30 11698 C 1111.47 1.71581 5.05367 0
M  V30 11699 O 1111.69 0.639245 5.66807 0
M  V30 11700 O 1110.63 2.56539 5.44492 0
M  V30 11701 H 1114.45 2.12787 2.16692 0
M  V30 11702 H 1112.04 1.09264 1.0189 0
M  V30 11703 H 1113.92 0.693429 4.15656 0
M  V30 11704 H 1112.6 -0.0702195 3.23624 0
M  V30 11705 H 1111.5 2.23502 2.99996 0
M  V30 11706 H 1112.84 2.92479 3.95875 0
M  V30 11707 N 1114.49 -1.10549 1.12324 0
M  V30 11708 C 1115.45 -2.15039 0.793156 0
M  V30 11709 C 1116.45 -1.59651 -0.19192 0
M  V30 11710 O 1117.64 -1.74167 0.0337262 0
M  V30 11711 C 1114.77 -3.40433 0.17842 0
M  V30 11712 H 1115.97 -2.4575 1.71892 0
M  V30 11713 H 1113.52 -1.25892 0.926333 0
M  V30 11714 H 1114.25 -3.15338 -0.757122 0
M  V30 11715 H 1114.04 -3.81921 0.887645 0
M  V30 11716 H 1115.53 -4.17584 -0.0360724 0
M  V30 11717 N 1115.97 -0.914965 -1.28321 0
M  V30 11718 C 1116.91 -0.402792 -2.27258 0
M  V30 11719 C 1117.88 0.523412 -1.57638 0
M  V30 11720 O 1119.07 0.445344 -1.8553 0
M  V30 11721 C 1116.21 0.349956 -3.43321 0
M  V30 11722 C 1115.32 -0.608892 -4.27687 0
M  V30 11723 C 1114.46 0.162425 -5.30952 0
M  V30 11724 C 1113.49 -0.789959 -6.06981 0
M  V30 11725 N 1112.63 -0.0520826 -7.02081 0
M  V30 11726 H 1117.47 -1.25153 -2.70446 0
M  V30 11727 H 1115.01 -0.628444 -1.33 0
M  V30 11728 H 1116.97 0.802589 -4.09407 0
M  V30 11729 H 1115.6 1.16303 -3.01121 0
M  V30 11730 H 1114.65 -1.18005 -3.61634 0
M  V30 11731 H 1115.96 -1.33727 -4.8054 0
M  V30 11732 H 1115.11 0.675563 -6.02927 0
M  V30 11733 H 1113.85 0.923851 -4.7887 0
M  V30 11734 H 1112.86 -1.31446 -5.33856 0
M  V30 11735 H 1114.08 -1.55096 -6.61152 0
M  V30 11736 H 1112.03 0.691331 -6.52347 0
M  V30 11737 H 1111.95 -0.720267 -7.52561 0
M  V30 11738 H 1113.21 0.44082 -7.78253 0
M  V30 11739 N 1117.44 1.42219 -0.679077 0
M  V30 11740 C 1118.72 1.95155 -0.13188 0
M  V30 11741 C 1119.1 1.6193 1.35433 0
M  V30 11742 O 1118.45 0.917672 2.09263 0
M  V30 11743 C 1118.66 3.46635 -0.405578 0
M  V30 11744 C 1120.01 4.23359 -0.324394 0
M  V30 11745 O 1121.03 3.54578 -0.339564 0
M  V30 11746 O 1119.89 5.45831 -0.270268 0
M  V30 11747 H 1116.98 0.826983 -0.00535438 0
M  V30 11748 H 1119.53 1.52024 -0.754101 0
M  V30 11749 H 1118.3 3.6404 -1.43495 0
M  V30 11750 H 1117.92 3.96823 0.248439 0
M  V30 11751 N 1118.92 0.422693 1.51826 0
M  V30 11752 C 1120.17 -0.148861 2.02253 0
M  V30 11753 C 1120.5 -1.43629 1.30707 0
M  V30 11754 O 1119.78 -1.89967 0.417482 0
M  V30 11755 C 1120.06 -0.382672 3.58061 0
M  V30 11756 C 1119.91 0.922386 4.40241 0
M  V30 11757 C 1121.23 -1.1589 4.24567 0
M  V30 11758 H 1118.35 -0.0526279 0.735119 0
M  V30 11759 H 1120.99 0.558821 1.81596 0
M  V30 11760 H 1119.14 -0.985495 3.75793 0
M  V30 11761 H 1120.81 1.55806 4.34191 0
M  V30 11762 H 1119.06 1.53032 4.05911 0
M  V30 11763 H 1119.73 0.713012 5.47376 0
M  V30 11764 H 1122.2 -0.648415 4.11017 0
M  V30 11765 H 1121.08 -1.29125 5.33496 0
M  V30 11766 H 1121.34 -2.18315 3.84436 0
M  V30 11767 N 1120.4 -1.5685 0.153553 0
M  V30 11768 C 1121.65 -1.96334 -0.495915 0
M  V30 11769 C 1121.97 -1.03873 -1.64441 0
M  V30 11770 O 1121.23 -0.069231 -1.95578 0
M  V30 11771 C 1121.53 -3.42022 -1.0371 0
M  V30 11772 C 1121.19 -4.509 -0.00637049 0
M  V30 11773 C 1119.86 -4.80402 0.276956 0
M  V30 11774 C 1122.21 -5.16556 0.694187 0
M  V30 11775 C 1119.54 -5.72866 1.26653 0
M  V30 11776 C 1121.89 -6.10087 1.67263 0
M  V30 11777 C 1120.55 -6.37965 1.96359 0
M  V30 11778 H 1119.82 -0.718436 -0.181468 0
M  V30 11779 H 1122.47 -1.89968 0.241768 0
M  V30 11780 H 1120.77 -3.45252 -1.85225 0
M  V30 11781 H 1122.47 -3.69903 -1.54831 0
M  V30 11782 H 1119.06 -4.27942 -0.237378 0
M  V30 11783 H 1123.25 -4.9389 0.488496 0
M  V30 11784 H 1118.5 -5.92756 1.49833 0
M  V30 11785 H 1122.68 -6.60036 2.22094 0
M  V30 11786 H 1120.3 -7.09416 2.73189 0
M  V30 11787 N 1121.88 0.120221 -1.57141 0
M  V30 11788 C 1122.81 1.14876 -2.03287 0
M  V30 11789 C 1123.79 1.43259 -0.917112 0
M  V30 11790 O 1124.97 1.53721 -1.18674 0
M  V30 11791 C 1122.1 2.47525 -2.43616 0
M  V30 11792 C 1121.06 2.33607 -3.58625 0
M  V30 11793 C 1120.38 3.71207 -3.84849 0
M  V30 11794 C 1121.68 1.79761 -4.90391 0
M  V30 11795 H 1123.38 0.764943 -2.89463 0
M  V30 11796 H 1120.92 0.366516 -1.39258 0
M  V30 11797 H 1122.88 3.19728 -2.74504 0
M  V30 11798 H 1121.6 2.87794 -1.54409 0
M  V30 11799 H 1120.26 1.63853 -3.27945 0
M  V30 11800 H 1119.91 4.0896 -2.9285 0
M  V30 11801 H 1119.61 3.62749 -4.62263 0
M  V30 11802 H 1121.13 4.44917 -4.18188 0
M  V30 11803 H 1122.55 2.4178 -5.19822 0
M  V30 11804 H 1120.94 1.82126 -5.71795 0
M  V30 11805 H 1122.01 0.755087 -4.78985 0
M  V30 11806 N 1123.36 1.52689 0.390367 0
M  V30 11807 C 1124.6 1.67335 1.13329 0
M  V30 11808 C 1124.93 0.415068 1.90531 0
M  V30 11809 O 1124.2 -0.570504 1.87409 0
M  V30 11810 H 1122.78 0.616821 0.421356 0
M  V30 11811 H 1125.44 1.89799 0.443 0
M  V30 11812 H 1124.53 2.52314 1.83696 0
M  V30 11813 N 1124.83 -0.648732 1.43629 0
M  V30 11814 C 1125.77 -1.77363 1.43589 0
M  V30 11815 C 1126.75 -1.59869 0.296783 0
M  V30 11816 O 1127.93 -1.81991 0.491065 0
M  V30 11817 C 1125.06 -3.1472 1.25175 0
M  V30 11818 C 1124.1 -3.50906 2.4242 0
M  V30 11819 S 1124.94 -3.50372 4.04968 0
M  V30 11820 C 1126.09 -4.90379 3.88946 0
M  V30 11821 H 1126.32 -1.77127 2.38774 0
M  V30 11822 H 1123.86 -0.821778 1.30714 0
M  V30 11823 H 1125.82 -3.93993 1.15239 0
M  V30 11824 H 1124.48 -3.12513 0.315303 0
M  V30 11825 H 1123.67 -4.50813 2.25353 0
M  V30 11826 H 1123.27 -2.79056 2.49006 0
M  V30 11827 H 1125.56 -5.79155 3.51548 0
M  V30 11828 H 1126.51 -5.12498 4.88622 0
M  V30 11829 H 1126.91 -4.64125 3.21323 0
M  V30 11830 N 1126.31 -1.30234 -0.887518 0
M  V30 11831 C 1127.56 -1.1891 -1.6391 0
M  V30 11832 C 1127.89 0.256749 -1.92798 0
M  V30 11833 O 1127.14 1.20047 -1.54555 0
M  V30 11834 C 1127.44 -1.96046 -2.98832 0
M  V30 11835 C 1127.11 -3.45683 -2.89507 0
M  V30 11836 C 1125.77 -3.86489 -2.8667 0
M  V30 11837 C 1128.12 -4.40983 -2.7782 0
M  V30 11838 C 1125.45 -5.2089 -2.69982 0
M  V30 11839 C 1127.8 -5.75489 -2.6267 0
M  V30 11840 C 1126.47 -6.15537 -2.58207 0
M  V30 11841 H 1125.74 -0.435123 -0.599791 0
M  V30 11842 H 1128.38 -1.61308 -1.03209 0
M  V30 11843 H 1126.69 -1.46275 -3.6347 0
M  V30 11844 H 1128.38 -1.84678 -3.55942 0
M  V30 11845 H 1124.97 -3.13255 -2.92523 0
M  V30 11846 H 1129.16 -4.10401 -2.79079 0
M  V30 11847 H 1124.41 -5.51014 -2.6494 0
M  V30 11848 H 1128.59 -6.48973 -2.526 0
M  V30 11849 H 1126.22 -7.19627 -2.45034 0
M  V30 11850 N 1127.79 1.09952 -1.12909 0
M  V30 11851 C 1128.72 2.18477 -0.824014 0
M  V30 11852 C 1129.7 1.68744 0.214324 0
M  V30 11853 O 1130.89 1.94057 0.0744281 0
M  V30 11854 C 1128.02 3.46143 -0.283308 0
M  V30 11855 C 1126.97 4.09178 -1.25528 0
M  V30 11856 C 1126.3 5.31604 -0.574574 0
M  V30 11857 C 1127.6 4.52308 -2.6118 0
M  V30 11858 H 1129.29 2.44254 -1.73148 0
M  V30 11859 H 1126.84 1.17394 -0.833952 0
M  V30 11860 H 1128.79 4.21361 -0.057583 0
M  V30 11861 H 1127.51 3.19872 0.659525 0
M  V30 11862 H 1126.17 3.35973 -1.4669 0
M  V30 11863 H 1125.82 5.01611 0.37356 0
M  V30 11864 H 1125.52 5.74732 -1.22299 0
M  V30 11865 H 1127.04 6.0955 -0.358004 0
M  V30 11866 H 1128.46 5.18776 -2.44017 0
M  V30 11867 H 1126.86 5.06302 -3.22147 0
M  V30 11868 H 1127.93 3.64977 -3.19249 0
M  V30 11869 N 1129.27 0.921757 1.27833 0
M  V30 11870 C 1130.5 0.574368 1.98455 0
M  V30 11871 C 1130.91 -0.850577 1.69002 0
M  V30 11872 O 1130.25 -1.57607 0.943708 0
M  V30 11873 C 1130.31 0.713235 3.52354 0
M  V30 11874 C 1129.98 2.1092 4.05415 0
M  V30 11875 C 1130.97 3.08276 4.18643 0
M  V30 11876 C 1128.66 2.42454 4.3991 0
M  V30 11877 C 1130.65 4.35279 4.6563 0
M  V30 11878 C 1128.34 3.69694 4.8659 0
M  V30 11879 C 1129.34 4.6592 4.99407 0
M  V30 11880 O 1129.02 5.90896 5.45066 0
M  V30 11881 H 1128.76 0.216955 0.640239 0
M  V30 11882 H 1131.31 1.23932 1.63798 0
M  V30 11883 H 1129.54 -0.00881115 3.86699 0
M  V30 11884 H 1131.23 0.371776 4.04194 0
M  V30 11885 H 1132 2.85234 3.92258 0
M  V30 11886 H 1127.87 1.68303 4.2918 0
M  V30 11887 H 1131.42 5.10391 4.75549 0
M  V30 11888 H 1127.32 3.92557 5.12415 0
M  V30 11889 H 1128.08 5.938 5.63333 0
M  V30 11890 N 1130.75 -1.41857 0.686609 0
M  V30 11891 C 1131.66 -2.34595 0.0159005 0
M  V30 11892 C 1132.67 -1.55741 -0.775933 0
M  V30 11893 O 1133.85 -1.8826 -0.71555 0
M  V30 11894 C 1130.91 -3.34395 -0.915473 0
M  V30 11895 C 1129.97 -4.29141 -0.116851 0
M  V30 11896 C 1129.21 -5.24174 -1.00386 0
M  V30 11897 O 1129.43 -5.24431 -2.2434 0
M  V30 11898 O 1128.36 -6.00152 -0.458337 0
M  V30 11899 H 1132.19 -2.9351 0.780101 0
M  V30 11900 H 1129.78 -1.42559 0.446896 0
M  V30 11901 H 1131.66 -3.95675 -1.44981 0
M  V30 11902 H 1130.33 -2.77936 -1.65932 0
M  V30 11903 H 1129.24 -3.71238 0.461871 0
M  V30 11904 H 1130.57 -4.88673 0.588138 0
M  V30 11905 N 1132.22 -0.430739 -1.51599 0
M  V30 11906 C 1133.45 0.136599 -2.06148 0
M  V30 11907 C 1133.86 1.37577 -1.29881 0
M  V30 11908 O 1133.21 1.80337 -0.349875 0
M  V30 11909 C 1133.27 0.53071 -3.55561 0
M  V30 11910 C 1132.93 -0.600738 -4.53034 0
M  V30 11911 C 1133.93 -1.47089 -4.98659 0
M  V30 11912 C 1131.61 -0.77959 -4.96213 0
M  V30 11913 C 1133.61 -2.50464 -5.86128 0
M  V30 11914 C 1131.29 -1.81663 -5.83474 0
M  V30 11915 C 1132.29 -2.67755 -6.28328 0
M  V30 11916 O 1131.98 -3.69679 -7.13858 0
M  V30 11917 H 1131.71 0.0143071 -0.675849 0
M  V30 11918 H 1134.27 -0.606673 -1.96236 0
M  V30 11919 H 1132.5 1.32659 -3.63233 0
M  V30 11920 H 1134.19 1.02844 -3.92655 0
M  V30 11921 H 1134.95 -1.34421 -4.66 0
M  V30 11922 H 1130.83 -0.119082 -4.60846 0
M  V30 11923 H 1134.37 -3.17695 -6.2106 0
M  V30 11924 H 1130.27 -1.94353 -6.15546 0
M  V30 11925 H 1131.04 -3.66181 -7.3202 0
M  V30 11926 N 1133.7 1.56767 -0.161869 0
M  V30 11927 C 1134.67 2.16299 0.758104 0
M  V30 11928 C 1135.67 1.10859 1.16478 0
M  V30 11929 O 1136.86 1.36422 1.08327 0
M  V30 11930 C 1133.99 2.73819 2.03067 0
M  V30 11931 H 1135.18 2.98938 0.239992 0
M  V30 11932 H 1132.73 1.56054 0.0876532 0
M  V30 11933 H 1133.47 1.94887 2.59209 0
M  V30 11934 H 1133.25 3.50974 1.74813 0
M  V30 11935 H 1134.74 3.19638 2.68741 0
M  V30 11936 N 1135.18 -0.111886 1.57202 0
M  V30 11937 C 1136.6 -0.465629 1.52657 0
M  V30 11938 C 1136.8 -1.81463 0.875989 0
M  V30 11939 O 1135.85 -2.4825 0.461345 0
M  V30 11940 C 1137.17 -0.443571 2.9741 0
M  V30 11941 C 1138.71 -0.52662 3.08538 0
M  V30 11942 C 1139.19 -0.53488 4.54866 0
M  V30 11943 N 1140.68 -0.596117 4.59348 0
M  V30 11944 C 1141.41 -0.624073 5.69994 0
M  V30 11945 N 1140.91 -0.609245 6.90116 0
M  V30 11946 N 1142.7 -0.667619 5.58121 0
M  V30 11947 H 1134.85 0.771925 1.97876 0
M  V30 11948 H 1137.12 0.285534 0.903977 0
M  V30 11949 H 1136.82 0.480138 3.48407 0
M  V30 11950 H 1136.7 -1.26876 3.55221 0
M  V30 11951 H 1139.08 -1.44075 2.57539 0
M  V30 11952 H 1139.17 0.326396 2.53709 0
M  V30 11953 H 1138.81 0.375233 5.06512 0
M  V30 11954 H 1138.74 -1.40488 5.07514 0
M  V30 11955 H 1141.23 -0.613452 3.72888 0
M  V30 11956 H 1141.54 -0.633396 7.702 0
M  V30 11957 H 1139.89 -0.576557 6.92604 0
M  V30 11958 H 1143.08 -0.676616 4.63184 0
M  V30 11959 H 1143.25 -0.685938 6.44359 0
M  V30 11960 N 1136.66 -1.52894 -0.382264 0
M  V30 11961 C 1138.07 -1.42295 -0.722802 0
M  V30 11962 C 1138.27 -0.548717 -1.93885 0
M  V30 11963 O 1137.33 -0.0247431 -2.52488 0
M  V30 11964 C 1138.64 -2.85246 -0.9516 0
M  V30 11965 C 1140.19 -2.94768 -1.05265 0
M  V30 11966 C 1140.67 -4.38745 -1.31404 0
M  V30 11967 N 1142.16 -4.421 -1.38211 0
M  V30 11968 C 1142.89 -5.50592 -1.60113 0
M  V30 11969 N 1142.39 -6.69158 -1.79442 0
M  V30 11970 N 1144.18 -5.38145 -1.62347 0
M  V30 11971 H 1136.33 -2.0825 0.417816 0
M  V30 11972 H 1138.6 -0.939753 0.124776 0
M  V30 11973 H 1138.3 -3.51459 -0.130088 0
M  V30 11974 H 1138.18 -3.27903 -1.86439 0
M  V30 11975 H 1140.56 -2.28718 -1.86472 0
M  V30 11976 H 1140.64 -2.55529 -0.117619 0
M  V30 11977 H 1140.29 -5.05363 -0.507038 0
M  V30 11978 H 1140.22 -4.75542 -2.26202 0
M  V30 11979 H 1142.71 -3.56644 -1.24954 0
M  V30 11980 H 1143.02 -7.47615 -1.95681 0
M  V30 11981 H 1141.37 -6.72175 -1.76653 0
M  V30 11982 H 1144.56 -4.44485 -1.46803 0
M  V30 11983 H 1144.73 -6.22764 -1.79077 0
M  V30 11984 N 1138.14 0.641106 -1.43971 0
M  V30 11985 C 1139.09 1.74699 -1.46507 0
M  V30 11986 C 1140.07 1.57437 -0.332037 0
M  V30 11987 O 1141.26 1.67343 -0.576663 0
M  V30 11988 C 1138.39 3.13344 -1.40252 0
M  V30 11989 C 1137.48 3.3611 -2.58632 0
M  V30 11990 N 1137.87 3.29291 -3.83929 0
M  V30 11991 C 1136.17 3.66873 -2.53615 0
M  V30 11992 C 1136.87 3.52472 -4.62751 0
M  V30 11993 N 1135.84 3.74868 -3.93668 0
M  V30 11994 H 1139.65 1.67869 -2.41241 0
M  V30 11995 H 1137.16 0.843217 -1.38793 0
M  V30 11996 H 1139.16 3.92636 -1.40153 0
M  V30 11997 H 1137.82 3.21346 -0.46549 0
M  V30 11998 H 1138.83 3.08431 -4.16041 0
M  V30 11999 H 1135.51 3.81917 -1.68659 0
M  V30 12000 H 1136.9 3.52876 -5.71776 0
M  V30 12001 N 1139.62 1.30703 0.880598 0
M  V30 12002 C 1141.03 1.17818 1.4483 0
M  V30 12003 C 1141.38 -0.219456 1.94969 0
M  V30 12004 O 1140.5 -1.11646 1.85375 0
M  V30 12005 C 1141.1 2.13275 2.63247 0
M  V30 12006 C 1139.66 2.04356 3.16094 0
M  V30 12007 C 1138.8 2.03108 1.88792 0
M  V30 12008 H 1141.75 1.42909 0.690125 0
M  V30 12009 H 1141.78 1.71615 3.39601 0
M  V30 12010 H 1141.29 3.14988 2.26725 0
M  V30 12011 H 1139.39 1.058 3.57263 0
M  V30 12012 H 1139.5 2.92953 3.79098 0
M  V30 12013 H 1137.87 1.47971 2.07308 0
M  V30 12014 H 1138.65 3.06558 1.54521 0
M  V30 12015 N 1141.09 -1.09351 1.1349 0
M  V30 12016 C 1142.37 -1.78121 0.808225 0
M  V30 12017 C 1142.75 -1.99154 -0.700072 0
M  V30 12018 O 1142.1 -1.59356 -1.63762 0
M  V30 12019 C 1142.31 -3.10368 1.59601 0
M  V30 12020 C 1143.66 -3.85063 1.78919 0
M  V30 12021 O 1144.68 -3.20122 1.56206 0
M  V30 12022 O 1143.54 -5.01648 2.16821 0
M  V30 12023 H 1140.63 -0.77253 0.295173 0
M  V30 12024 H 1143.18 -1.15901 1.23956 0
M  V30 12025 H 1141.95 -2.90549 2.62101 0
M  V30 12026 H 1141.57 -3.80312 1.15967 0
M  V30 12027 N 1142.57 -0.928524 -1.27343 0
M  V30 12028 C 1143.8 -0.584884 -1.98148 0
M  V30 12029 C 1144.21 0.841603 -1.69451 0
M  V30 12030 O 1143.55 1.57104 -0.952053 0
M  V30 12031 C 1143.61 -0.731911 -3.51971 0
M  V30 12032 C 1143.28 -2.13067 -4.04291 0
M  V30 12033 C 1144.28 -3.10492 -4.17002 0
M  V30 12034 C 1141.96 -2.44784 -4.38619 0
M  V30 12035 C 1143.95 -4.37742 -4.63315 0
M  V30 12036 C 1141.64 -3.72269 -4.84622 0
M  V30 12037 C 1142.64 -4.68562 -4.9693 0
M  V30 12038 O 1142.33 -5.93779 -5.41924 0
M  V30 12039 H 1142.06 -0.220347 -0.63908 0
M  V30 12040 H 1144.61 -1.24799 -1.63139 0
M  V30 12041 H 1142.84 -0.0116966 -3.86698 0
M  V30 12042 H 1144.53 -0.393206 -4.03991 0
M  V30 12043 H 1145.3 -2.8731 -3.9074 0
M  V30 12044 H 1141.18 -1.70577 -4.28281 0
M  V30 12045 H 1144.72 -5.12905 -4.72836 0
M  V30 12046 H 1140.62 -3.95269 -5.10326 0
M  V30 12047 H 1141.39 -5.96779 -5.60176 0
M  V30 12048 N 1144.05 1.41491 -0.694123 0
M  V30 12049 C 1145.27 2.06099 -0.23197 0
M  V30 12050 C 1145.7 1.51888 1.10958 0
M  V30 12051 O 1145.06 0.645247 1.69429 0
M  V30 12052 C 1145.11 3.60053 -0.198522 0
M  V30 12053 O 1144.21 4.04021 0.827067 0
M  V30 12054 H 1143.55 0.654193 -0.113699 0
M  V30 12055 H 1146.08 1.81282 -0.948575 0
M  V30 12056 H 1146.09 4.0799 -0.0288904 0
M  V30 12057 H 1144.77 3.98879 -1.17764 0
M  V30 12058 H 1143.34 3.67593 0.626908 0
M  V30 12059 N 1145.53 0.438773 1.51369 0
M  V30 12060 C 1146.77 -0.127401 2.02399 0
M  V30 12061 C 1147.11 -1.42235 1.32223 0
M  V30 12062 O 1146.38 -1.89513 0.437607 0
M  V30 12063 C 1146.66 -0.344673 3.58447 0
M  V30 12064 C 1146.52 0.969027 4.39238 0
M  V30 12065 C 1147.84 -1.11381 4.25773 0
M  V30 12066 H 1144.96 -0.0448281 0.735635 0
M  V30 12067 H 1147.6 0.57805 1.80993 0
M  V30 12068 H 1145.75 -0.945582 3.76817 0
M  V30 12069 H 1147.42 1.60403 4.32514 0
M  V30 12070 H 1145.66 1.57329 4.04265 0
M  V30 12071 H 1146.33 0.771029 5.46589 0
M  V30 12072 H 1148.81 -0.604785 4.11681 0
M  V30 12073 H 1147.69 -1.23459 5.34835 0
M  V30 12074 H 1147.95 -2.14225 3.8673 0
M  V30 12075 N 1147.01 -1.56678 0.170181 0
M  V30 12076 C 1148.25 -1.9714 -0.475767 0
M  V30 12077 C 1148.58 -1.05611 -1.62972 0
M  V30 12078 O 1147.86 -0.103017 -1.94227 0
M  V30 12079 C 1148.14 -3.47072 -0.959828 0
M  V30 12080 C 1148 -4.4938 0.194225 0
M  V30 12081 C 1149.31 -4.00071 -1.83387 0
M  V30 12082 H 1146.43 -0.716776 -0.171466 0
M  V30 12083 H 1149.08 -1.88266 0.256086 0
M  V30 12084 H 1147.23 -3.54766 -1.58346 0
M  V30 12085 H 1148.9 -4.53748 0.83128 0
M  V30 12086 H 1147.14 -4.25393 0.849893 0
M  V30 12087 H 1147.81 -5.51685 -0.186575 0
M  V30 12088 H 1150.29 -3.95002 -1.30815 0
M  V30 12089 H 1149.16 -5.05398 -2.14159 0
M  V30 12090 H 1149.42 -3.43819 -2.77923 0
M  V30 12091 N 1148.48 0.103547 -1.57259 0
M  V30 12092 C 1149.41 1.12714 -2.04494 0
M  V30 12093 C 1150.39 1.42278 -0.932255 0
M  V30 12094 O 1151.58 1.52453 -1.20298 0
M  V30 12095 C 1148.71 2.44927 -2.46228 0
M  V30 12096 C 1147.66 2.2979 -3.61082 0
M  V30 12097 C 1146.99 3.67105 -3.88765 0
M  V30 12098 C 1148.29 1.7455 -4.9227 0
M  V30 12099 H 1149.98 0.734198 -2.90258 0
M  V30 12100 H 1147.53 0.351725 -1.39638 0
M  V30 12101 H 1149.48 3.16798 -2.77879 0
M  V30 12102 H 1148.21 2.8614 -1.57453 0
M  V30 12103 H 1146.87 1.60366 -3.29664 0
M  V30 12104 H 1146.51 4.05831 -2.97171 0
M  V30 12105 H 1146.21 3.57825 -4.66084 0
M  V30 12106 H 1147.74 4.40456 -4.22884 0
M  V30 12107 H 1149.15 2.36253 -5.22358 0
M  V30 12108 H 1147.55 1.76051 -5.73695 0
M  V30 12109 H 1148.62 0.704242 -4.79759 0
M  V30 12110 N 1149.96 1.53094 0.37415 0
M  V30 12111 C 1150.89 1.81901 1.46404 0
M  V30 12112 C 1151.87 0.671949 1.56265 0
M  V30 12113 O 1153.06 0.920978 1.70973 0
M  V30 12114 C 1150.19 2.00123 2.83845 0
M  V30 12115 C 1149.14 3.15864 2.88814 0
M  V30 12116 C 1148.47 3.19364 4.28848 0
M  V30 12117 C 1149.77 4.54633 2.57112 0
M  V30 12118 H 1151.46 2.73172 1.22546 0
M  V30 12119 H 1149.01 1.31444 0.588087 0
M  V30 12120 H 1150.96 2.18859 3.6011 0
M  V30 12121 H 1149.68 1.05555 3.09072 0
M  V30 12122 H 1148.34 2.96935 2.15 0
M  V30 12123 H 1147.99 2.2245 4.51137 0
M  V30 12124 H 1147.69 3.97123 4.3309 0
M  V30 12125 H 1149.22 3.40273 5.06997 0
M  V30 12126 H 1150.63 4.73587 3.23091 0
M  V30 12127 H 1149.03 5.34569 2.72683 0
M  V30 12128 H 1150.1 4.60331 1.52392 0
M  V30 12129 N 1151.44 -0.633461 1.44309 0
M  V30 12130 C 1152.37 -1.75676 1.53819 0
M  V30 12131 C 1153.35 -1.65537 0.391365 0
M  V30 12132 O 1154.54 -1.84332 0.611181 0
M  V30 12133 C 1151.67 -3.14197 1.47979 0
M  V30 12134 C 1150.62 -3.39122 2.61113 0
M  V30 12135 C 1149.95 -4.77648 2.40325 0
M  V30 12136 C 1151.25 -3.31914 4.03274 0
M  V30 12137 H 1152.94 -1.67974 2.47841 0
M  V30 12138 H 1150.49 -0.8067 1.19283 0
M  V30 12139 H 1152.44 -3.92553 1.53233 0
M  V30 12140 H 1151.16 -3.22677 0.504718 0
M  V30 12141 H 1149.82 -2.63145 2.55245 0
M  V30 12142 H 1149.47 -4.82829 1.41016 0
M  V30 12143 H 1149.17 -4.95284 3.16177 0
M  V30 12144 H 1150.69 -5.58237 2.47394 0
M  V30 12145 H 1152.11 -4.00178 4.10524 0
M  V30 12146 H 1150.5 -3.61085 4.7931 0
M  V30 12147 H 1151.57 -2.29761 4.2701 0
M  V30 12148 N 1152.92 -1.31168 -0.873655 0
M  V30 12149 C 1154.33 -1.09745 -1.1588 0
M  V30 12150 C 1154.53 0.134471 -2.01051 0
M  V30 12151 O 1153.59 0.824857 -2.38647 0
M  V30 12152 C 1154.9 -2.36704 -1.85451 0
M  V30 12153 C 1156.45 -2.42278 -1.98167 0
M  V30 12154 C 1156.93 -3.69108 -2.71152 0
M  V30 12155 N 1158.42 -3.69981 -2.7869 0
M  V30 12156 C 1159.15 -4.64811 -3.35765 0
M  V30 12157 N 1158.65 -5.69995 -3.938 0
M  V30 12158 N 1160.44 -4.52337 -3.33688 0
M  V30 12159 H 1152.59 -2.10184 -0.306021 0
M  V30 12160 H 1154.86 -0.927058 -0.198159 0
M  V30 12161 H 1154.56 -3.26666 -1.30316 0
M  V30 12162 H 1154.44 -2.46219 -2.85755 0
M  V30 12163 H 1156.82 -1.52787 -2.52468 0
M  V30 12164 H 1156.9 -2.3673 -0.969164 0
M  V30 12165 H 1156.55 -4.58963 -2.1752 0
M  V30 12166 H 1156.48 -3.71922 -3.72803 0
M  V30 12167 H 1158.97 -2.93944 -2.37498 0
M  V30 12168 H 1159.28 -6.38438 -4.3545 0
M  V30 12169 H 1157.63 -5.73773 -3.92186 0
M  V30 12170 H 1160.82 -3.69341 -2.87584 0
M  V30 12171 H 1160.99 -5.2642 -3.77871 0
M  V30 12172 N 1154.4 1.08748 -1.14068 0
M  V30 12173 C 1155.33 2.17591 -0.84714 0
M  V30 12174 C 1156.31 1.68962 0.196415 0
M  V30 12175 O 1157.49 1.94125 0.0538415 0
M  V30 12176 C 1154.62 3.45823 -0.320005 0
M  V30 12177 C 1153.58 4.07824 -1.2986 0
M  V30 12178 C 1152.9 5.30965 -0.630925 0
M  V30 12179 C 1154.2 4.49512 -2.65963 0
M  V30 12180 H 1155.9 2.42404 -1.75729 0
M  V30 12181 H 1153.44 1.16502 -0.846356 0
M  V30 12182 H 1155.4 4.21276 -0.102271 0
M  V30 12183 H 1154.12 3.20553 0.625561 0
M  V30 12184 H 1152.78 3.34398 -1.50245 0
M  V30 12185 H 1152.43 5.01979 0.320337 0
M  V30 12186 H 1152.13 5.73402 -1.28388 0
M  V30 12187 H 1153.65 6.09136 -0.422635 0
M  V30 12188 H 1155.06 5.16159 -2.49506 0
M  V30 12189 H 1153.46 5.02857 -3.27498 0
M  V30 12190 H 1154.53 3.6157 -3.23102 0
M  V30 12191 N 1155.87 0.935264 1.26849 0
M  V30 12192 C 1156.84 0.44485 2.24842 0
M  V30 12193 C 1157.84 -0.440781 1.54641 0
M  V30 12194 O 1159.03 -0.240793 1.72528 0
M  V30 12195 C 1156.16 -0.359566 3.38998 0
M  V30 12196 H 1157.35 1.31074 2.6974 0
M  V30 12197 H 1154.91 0.716665 1.38901 0
M  V30 12198 H 1155.64 -1.24396 2.99493 0
M  V30 12199 H 1155.43 0.275529 3.91131 0
M  V30 12200 H 1156.92 -0.692804 4.11813 0
M  V30 12201 N 1157.35 -1.41121 0.701616 0
M  V30 12202 C 1158.3 -2.30765 0.040121 0
M  V30 12203 C 1159.27 -1.47436 -0.764975 0
M  V30 12204 O 1160.45 -1.76209 -0.731775 0
M  V30 12205 C 1157.59 -3.33535 -0.885903 0
M  V30 12206 C 1156.71 -4.3194 -0.0717765 0
M  V30 12207 C 1155.84 -5.21779 -0.995996 0
M  V30 12208 C 1154.88 -6.11849 -0.175133 0
M  V30 12209 N 1154.02 -6.94151 -1.05348 0
M  V30 12210 H 1158.86 -2.86772 0.810312 0
M  V30 12211 H 1156.4 -1.41233 0.411301 0
M  V30 12212 H 1158.35 -3.91675 -1.4369 0
M  V30 12213 H 1156.98 -2.79065 -1.62243 0
M  V30 12214 H 1156.04 -3.75698 0.596221 0
M  V30 12215 H 1157.35 -4.95597 0.56435 0
M  V30 12216 H 1156.5 -5.84782 -1.61601 0
M  V30 12217 H 1155.24 -4.58363 -1.66597 0
M  V30 12218 H 1154.25 -5.4789 0.457916 0
M  V30 12219 H 1155.47 -6.77322 0.491133 0
M  V30 12220 H 1153.42 -6.33338 -1.70936 0
M  V30 12221 H 1153.33 -7.54518 -0.473065 0
M  V30 12222 H 1154.6 -7.61617 -1.66012 0
M  V30 12223 N 1158.83 -0.446794 -1.51134 0
M  V30 12224 C 1160.06 0.114893 -2.06581 0
M  V30 12225 C 1160.47 1.35642 -1.31327 0
M  V30 12226 O 1159.83 1.78595 -0.375506 0
M  V30 12227 C 1159.88 0.427589 -3.58962 0
M  V30 12228 O 1159.6 -0.764669 -4.31375 0
M  V30 12229 C 1161.1 1.03891 -4.30954 0
M  V30 12230 H 1158.32 0.00373031 -0.67099 0
M  V30 12231 H 1160.87 -0.628596 -1.94599 0
M  V30 12232 H 1159.02 1.12099 -3.70827 0
M  V30 12233 H 1159.44 -0.494605 -5.22163 0
M  V30 12234 H 1160.91 1.20764 -5.38628 0
M  V30 12235 H 1161.39 2.02252 -3.8986 0
M  V30 12236 H 1161.99 0.384623 -4.23557 0
M  V30 12237 N 1160.31 1.56586 -0.178487 0
M  V30 12238 C 1161.54 2.01183 0.470002 0
M  V30 12239 C 1161.95 1.05781 1.56866 0
M  V30 12240 O 1161.29 0.0519678 1.83626 0
M  V30 12241 C 1161.35 3.42199 1.10183 0
M  V30 12242 C 1161.02 4.56773 0.143945 0
M  V30 12243 C 1162.01 5.1594 -0.64043 0
M  V30 12244 C 1159.7 5.02286 0.0376874 0
M  V30 12245 C 1161.69 6.19055 -1.51819 0
M  V30 12246 C 1159.38 6.05248 -0.843652 0
M  V30 12247 C 1160.38 6.63505 -1.62017 0
M  V30 12248 O 1160.06 7.6447 -2.48677 0
M  V30 12249 H 1159.8 0.664527 0.124018 0
M  V30 12250 H 1162.35 2.0349 -0.279495 0
M  V30 12251 H 1160.58 3.36827 1.89959 0
M  V30 12252 H 1162.27 3.70705 1.65326 0
M  V30 12253 H 1163.04 4.81656 -0.56855 0
M  V30 12254 H 1158.91 4.56649 0.631893 0
M  V30 12255 H 1162.46 6.64455 -2.12475 0
M  V30 12256 H 1158.36 6.38958 -0.916708 0
M  V30 12257 H 1159.12 7.81823 -2.42272 0
M  V30 12258 N 1161.79 -0.095206 1.57312 0
M  V30 12259 C 1162.7 -1.13388 2.05379 0
M  V30 12260 C 1163.71 -1.43868 0.978668 0
M  V30 12261 O 1164.89 -1.54512 1.29182 0
M  V30 12262 C 1161.95 -2.43444 2.46852 0
M  V30 12263 C 1161.01 -2.20146 3.68557 0
M  V30 12264 C 1160.25 -3.44001 4.08043 0
M  V30 12265 O 1160.47 -4.52233 3.47623 0
M  V30 12266 O 1159.4 -3.33596 5.00997 0
M  V30 12267 H 1163.23 -0.755622 2.9415 0
M  V30 12268 H 1160.82 -0.307707 1.46197 0
M  V30 12269 H 1162.7 -3.20027 2.74155 0
M  V30 12270 H 1161.37 -2.80696 1.61219 0
M  V30 12271 H 1160.28 -1.41345 3.46371 0
M  V30 12272 H 1161.61 -1.87787 4.54969 0
M  V30 12273 N 1163.26 -1.53291 -0.366026 0
M  V30 12274 C 1164.49 -1.73359 -1.12934 0
M  V30 12275 C 1164.91 -0.462352 -1.83051 0
M  V30 12276 O 1164.26 0.564711 -1.73543 0
M  V30 12277 C 1164.32 -2.89873 -2.15999 0
M  V30 12278 O 1164.04 -4.12079 -1.48737 0
M  V30 12279 C 1165.54 -3.21811 -3.04881 0
M  V30 12280 H 1162.76 -0.579827 -0.337701 0
M  V30 12281 H 1165.3 -2.00033 -0.425081 0
M  V30 12282 H 1163.46 -2.65595 -2.82025 0
M  V30 12283 H 1163.87 -4.77322 -2.17404 0
M  V30 12284 H 1165.34 -4.06744 -3.7318 0
M  V30 12285 H 1165.82 -2.37156 -3.69667 0
M  V30 12286 H 1166.43 -3.48013 -2.44473 0
M  V30 12287 N 1164.74 0.6258 -1.44643 0
M  V30 12288 C 1165.97 1.41233 -1.51198 0
M  V30 12289 C 1166.39 1.88291 -0.138572 0
M  V30 12290 O 1165.74 1.61151 0.856537 0
M  V30 12291 C 1165.79 2.62908 -2.48117 0
M  V30 12292 O 1165.51 2.1781 -3.80119 0
M  V30 12293 C 1167.02 3.55976 -2.6419 0
M  V30 12294 H 1164.24 0.432954 -0.512632 0
M  V30 12295 H 1166.78 0.76486 -1.89658 0
M  V30 12296 H 1164.93 3.23735 -2.12778 0
M  V30 12297 H 1165.35 2.96732 -4.32493 0
M  V30 12298 H 1166.82 4.37943 -3.3602 0
M  V30 12299 H 1167.3 4.05133 -1.696 0
M  V30 12300 H 1167.91 3.01014 -3.00451 0
M  V30 12301 N 1166.22 1.31629 0.866686 0
M  V30 12302 C 1167.15 1.22151 1.99001 0
M  V30 12303 C 1168.13 0.107972 1.69757 0
M  V30 12304 O 1169.32 0.293125 1.91975 0
M  V30 12305 C 1166.45 0.93144 3.34577 0
M  V30 12306 C 1165.4 2.0049 3.78137 0
M  V30 12307 C 1164.73 1.56747 5.11209 0
M  V30 12308 C 1166.03 3.41844 3.94892 0
M  V30 12309 H 1167.72 2.16132 2.0719 0
M  V30 12310 H 1165.27 1.04051 0.995463 0
M  V30 12311 H 1167.22 0.851719 4.12703 0
M  V30 12312 H 1165.94 -0.0440289 3.2657 0
M  V30 12313 H 1164.6 2.07457 3.02253 0
M  V30 12314 H 1164.25 0.579767 4.99648 0
M  V30 12315 H 1163.95 2.28562 5.41326 0
M  V30 12316 H 1165.47 1.50188 5.91841 0
M  V30 12317 H 1166.89 3.37534 4.63405 0
M  V30 12318 H 1165.29 4.11905 4.36411 0
M  V30 12319 H 1166.36 3.82389 2.98172 0
M  V30 12320 N 1167.7 -1.08142 1.14644 0
M  V30 12321 C 1168.61 -2.18675 0.849607 0
M  V30 12322 C 1169.63 -1.73158 -0.170983 0
M  V30 12323 O 1170.8 -2.014 0.0011579 0
M  V30 12324 C 1167.87 -3.45084 0.334305 0
M  V30 12325 C 1166.93 -4.05213 1.41779 0
M  V30 12326 C 1166.16 -5.25588 0.926981 0
M  V30 12327 O 1166.38 -5.69934 -0.230522 0
M  V30 12328 O 1165.32 -5.77183 1.70715 0
M  V30 12329 H 1169.14 -2.46542 1.77343 0
M  V30 12330 H 1166.73 -1.17328 0.924911 0
M  V30 12331 H 1168.61 -4.21367 0.0529893 0
M  V30 12332 H 1167.29 -3.18788 -0.561755 0
M  V30 12333 H 1166.19 -3.30507 1.7526 0
M  V30 12334 H 1167.53 -4.35764 2.28847 0
M  V30 12335 N 1169.18 -0.941978 -1.26351 0
M  V30 12336 C 1170.12 -0.450906 -2.26353 0
M  V30 12337 C 1171.09 0.489857 -1.58712 0
M  V30 12338 O 1172.28 0.40589 -1.86433 0
M  V30 12339 C 1169.42 0.277054 -3.43986 0
M  V30 12340 C 1168.53 -0.699474 -4.263 0
M  V30 12341 C 1167.67 0.0497661 -5.31177 0
M  V30 12342 C 1166.71 -0.918531 -6.05169 0
M  V30 12343 N 1165.84 -0.200993 -7.01812 0
M  V30 12344 H 1170.68 -1.30861 -2.6773 0
M  V30 12345 H 1168.22 -0.656514 -1.31637 0
M  V30 12346 H 1170.18 0.715567 -4.11018 0
M  V30 12347 H 1168.81 1.09889 -3.0352 0
M  V30 12348 H 1167.86 -1.2565 -3.59049 0
M  V30 12349 H 1169.17 -1.4389 -4.77595 0
M  V30 12350 H 1168.33 0.547521 -6.04224 0
M  V30 12351 H 1167.07 0.822068 -4.80722 0
M  V30 12352 H 1166.07 -1.4274 -5.30947 0
M  V30 12353 H 1167.3 -1.69085 -6.57713 0
M  V30 12354 H 1165.24 0.552803 -6.53667 0
M  V30 12355 H 1165.16 -0.879735 -7.50864 0
M  V30 12356 H 1166.43 0.275642 -7.79012 0
M  V30 12357 N 1170.66 1.40747 -0.709091 0
M  V30 12358 C 1171.9 2.02864 -0.250145 0
M  V30 12359 C 1172.26 1.54993 1.13319 0
M  V30 12360 O 1173.46 2.09128 1.68876 0
M  V30 12361 C 1171.73 3.55964 -0.320114 0
M  V30 12362 S 1173.29 4.38755 0.0628008 0
M  V30 12363 H 1170.11 0.703975 -0.0996992 0
M  V30 12364 H 1172.71 1.7197 -0.92987 0
M  V30 12365 H 1171.41 3.88297 -1.32866 0
M  V30 12366 H 1170.95 3.91577 0.378308 0
M  V30 12367 H 1172.96 4.79226 1.28672 0
M  V30 12368 N 1172.13 0.454803 1.50895 0
M  V30 12369 C 1173.37 -0.104722 2.04132 0
M  V30 12370 C 1173.74 -1.38434 1.33042 0
M  V30 12371 O 1174.94 -2.02521 1.76745 0
M  V30 12372 C 1173.21 -0.300775 3.56132 0
M  V30 12373 S 1174.77 -0.821197 4.31047 0
M  V30 12374 H 1171.59 -0.0236407 0.710607 0
M  V30 12375 H 1174.19 0.618213 1.85468 0
M  V30 12376 H 1172.89 0.636592 4.05433 0
M  V30 12377 H 1172.42 -1.05029 3.79121 0
M  V30 12378 H 1174.44 -2.09669 4.49726 0
M  V30 12379 N 1173.61 -1.56489 0.186789 0
M  V30 12380 C 1174.57 -2.17478 -0.723596 0
M  V30 12381 C 1175.57 -1.12698 -1.14699 0
M  V30 12382 O 1176.76 -1.38128 -1.06143 0
M  V30 12383 C 1173.9 -2.77015 -1.98685 0
M  V30 12384 H 1175.09 -2.99282 -0.192403 0
M  V30 12385 H 1172.64 -1.56174 -0.0628153 0
M  V30 12386 H 1173.38 -1.98987 -2.56076 0
M  V30 12387 H 1173.16 -3.53711 -1.69207 0
M  V30 12388 H 1174.65 -3.23872 -2.63622 0
M  V30 12389 N 1175.09 0.086862 -1.5736 0
M  V30 12390 C 1176.05 1.08906 -2.01673 0
M  V30 12391 C 1177.05 1.32473 -0.911463 0
M  V30 12392 O 1178.24 1.28447 -1.17673 0
M  V30 12393 C 1175.37 2.43629 -2.38449 0
M  V30 12394 H 1176.57 0.707461 -2.91436 0
M  V30 12395 H 1174.12 0.332154 -1.5273 0
M  V30 12396 H 1174.86 2.8665 -1.51665 0
M  V30 12397 H 1174.64 2.2787 -3.19089 0
M  V30 12398 H 1176.13 3.15695 -2.73361 0
M  V30 12399 N 1176.57 1.53483 0.357892 0
M  V30 12400 C 1177.53 1.79782 1.42166 0
M  V30 12401 C 1178.53 0.668441 1.46248 0
M  V30 12402 O 1179.72 0.936677 1.46874 0
M  V30 12403 C 1176.85 1.92686 2.8122 0
M  V30 12404 H 1178.05 2.74794 1.20117 0
M  V30 12405 H 1175.6 1.44677 0.591468 0
M  V30 12406 H 1176.33 0.997669 3.08573 0
M  V30 12407 H 1176.12 2.74837 2.79655 0
M  V30 12408 H 1177.61 2.14599 3.58242 0
M  V30 12409 N 1178.05 -0.61812 1.44973 0
M  V30 12410 C 1179.32 -1.37705 1.38913 0
M  V30 12411 C 1179.7 -2.1103 0.054385 0
M  V30 12412 O 1179.05 -2.07197 -0.963409 0
M  V30 12413 C 1179.26 -2.33265 2.59593 0
M  V30 12414 C 1180.61 -2.96197 3.04224 0
M  V30 12415 O 1181.63 -2.43589 2.59891 0
M  V30 12416 O 1180.49 -3.91666 3.8113 0
M  V30 12417 H 1177.59 -0.61694 0.55074 0
M  V30 12418 H 1180.13 -0.642088 1.57084 0
M  V30 12419 H 1178.9 -1.78271 3.48332 0
M  V30 12420 H 1178.53 -3.14158 2.43702 0
M  V30 12421 N 1179.52 -1.32087 -0.859693 0
M  V30 12422 C 1180.93 -1.20107 -1.42938 0
M  V30 12423 C 1181.29 0.188411 -1.95293 0
M  V30 12424 O 1180.41 1.08683 -1.87128 0
M  V30 12425 C 1181.01 -2.17436 -2.59821 0
M  V30 12426 C 1179.56 -2.09359 -3.12803 0
M  V30 12427 C 1178.71 -2.06086 -1.85537 0
M  V30 12428 H 1181.66 -1.43989 -0.667302 0
M  V30 12429 H 1181.68 -1.76996 -3.36828 0
M  V30 12430 H 1181.2 -3.18555 -2.21685 0
M  V30 12431 H 1179.3 -1.1147 -3.55535 0
M  V30 12432 H 1179.41 -2.98947 -3.74389 0
M  V30 12433 H 1177.77 -1.51251 -2.04928 0
M  V30 12434 H 1178.56 -3.08978 -1.49625 0
M  V30 12435 N 1181 1.07532 -1.15215 0
M  V30 12436 C 1181.95 2.12909 -0.815714 0
M  V30 12437 C 1182.94 1.59662 0.1992 0
M  V30 12438 O 1184.13 1.77 0.000215597 0
M  V30 12439 C 1181.26 3.41945 -0.304717 0
M  V30 12440 C 1180.34 4.0205 -1.34968 0
M  V30 12441 N 1180.73 4.36439 -2.55646 0
M  V30 12442 C 1179.03 4.29498 -1.20199 0
M  V30 12443 C 1179.73 4.84044 -3.22609 0
M  V30 12444 N 1178.71 4.82702 -2.5 0
M  V30 12445 H 1182.51 2.37327 -1.73358 0
M  V30 12446 H 1180.02 1.24952 -1.03734 0
M  V30 12447 H 1182.02 4.16875 -0.0453503 0
M  V30 12448 H 1180.68 3.18971 0.607235 0
M  V30 12449 H 1181.69 4.27184 -2.92804 0
M  V30 12450 H 1178.37 4.16032 -0.349781 0
M  V30 12451 H 1179.76 5.19959 -4.2555 0
M  V30 12452 N 1182.48 0.948665 1.2585 0
M  V30 12453 C 1183.39 0.470525 2.29833 0
M  V30 12454 C 1184.41 -0.45919 1.67832 0
M  V30 12455 O 1185.58 -0.336893 1.98562 0
M  V30 12456 C 1182.65 -0.249635 3.458 0
M  V30 12457 C 1181.71 0.717559 4.23261 0
M  V30 12458 C 1180.94 0.0316724 5.33691 0
M  V30 12459 O 1181.16 -1.18384 5.5798 0
M  V30 12460 O 1180.1 0.71418 5.97648 0
M  V30 12461 H 1183.92 1.33447 2.72811 0
M  V30 12462 H 1181.51 0.714864 1.31187 0
M  V30 12463 H 1183.39 -0.654993 4.16279 0
M  V30 12464 H 1182.07 -1.08885 3.04837 0
M  V30 12465 H 1180.97 1.17301 3.55234 0
M  V30 12466 H 1182.31 1.52461 4.67992 0
M  V30 12467 N 1183.96 -1.40369 0.716545 0
M  V30 12468 C 1185.2 -2.02728 0.2609 0
M  V30 12469 C 1185.56 -1.55591 -1.12496 0
M  V30 12470 O 1186.76 -2.1002 -1.67764 0
M  V30 12471 C 1185.03 -3.55789 0.338987 0
M  V30 12472 S 1186.59 -4.38782 -0.0395316 0
M  V30 12473 H 1183.41 -0.703437 0.103431 0
M  V30 12474 H 1186.01 -1.71474 0.938976 0
M  V30 12475 H 1184.72 -3.87587 1.34923 0
M  V30 12476 H 1184.25 -3.91772 -0.357536 0
M  V30 12477 H 1186.26 -4.79902 -1.26129 0
M  V30 12478 N 1185.44 -0.462799 -1.50652 0
M  V30 12479 C 1186.67 0.0928413 -2.06391 0
M  V30 12480 C 1187.07 1.34791 -1.3277 0
M  V30 12481 O 1186.42 1.79555 -0.388048 0
M  V30 12482 C 1186.48 0.45517 -3.56607 0
M  V30 12483 C 1186.14 -0.696698 -4.51658 0
M  V30 12484 C 1187.14 -1.57633 -4.95427 0
M  V30 12485 C 1184.83 -0.884669 -4.94448 0
M  V30 12486 C 1186.82 -2.62841 -5.80684 0
M  V30 12487 C 1184.51 -1.93998 -5.79489 0
M  V30 12488 C 1185.5 -2.81022 -6.22508 0
M  V30 12489 O 1185.19 -3.84738 -7.05856 0
M  V30 12490 H 1184.92 -3.18898e-05 -0.676 0
M  V30 12491 H 1187.48 -0.648161 -1.94905 0
M  V30 12492 H 1185.71 1.24924 -3.65966 0
M  V30 12493 H 1187.4 0.944923 -3.94748 0
M  V30 12494 H 1188.16 -1.44276 -4.63044 0
M  V30 12495 H 1184.04 -0.216807 -4.6049 0
M  V30 12496 H 1187.59 -3.30797 -6.14182 0
M  V30 12497 H 1183.48 -2.07366 -6.11285 0
M  V30 12498 H 1184.25 -3.81626 -7.24088 0
M  V30 12499 N 1186.91 1.56388 -0.195085 0
M  V30 12500 C 1187.88 2.17859 0.712053 0
M  V30 12501 C 1188.88 1.13304 1.141 0
M  V30 12502 O 1190.07 1.38689 1.05409 0
M  V30 12503 C 1187.2 2.78065 1.97213 0
M  V30 12504 H 1188.39 2.9938 0.176529 0
M  V30 12505 H 1185.95 1.56205 0.0545322 0
M  V30 12506 H 1186.68 2.00342 2.55017 0
M  V30 12507 H 1186.47 3.54603 1.67329 0
M  V30 12508 H 1187.96 3.25266 2.619 0
M  V30 12509 N 1188.39 -0.0785156 1.57404 0
M  V30 12510 C 1189.34 -1.09402 2.03224 0
M  V30 12511 C 1190.31 -1.38849 0.911596 0
M  V30 12512 O 1191.49 -1.50031 1.17878 0
M  V30 12513 C 1188.63 -2.40444 2.47549 0
M  V30 12514 C 1187.75 -2.17585 3.73203 0
M  V30 12515 C 1186.88 -3.42143 4.06339 0
M  V30 12516 C 1185.92 -3.14619 5.25054 0
M  V30 12517 N 1185.06 -4.31489 5.5386 0
M  V30 12518 H 1189.9 -0.696307 2.89751 0
M  V30 12519 H 1187.44 -0.332261 1.43298 0
M  V30 12520 H 1189.39 -3.16944 2.71298 0
M  V30 12521 H 1188.02 -2.78031 1.64009 0
M  V30 12522 H 1187.08 -1.3181 3.56834 0
M  V30 12523 H 1188.39 -1.93249 4.59844 0
M  V30 12524 H 1187.54 -4.27042 4.30953 0
M  V30 12525 H 1186.28 -3.69549 3.18253 0
M  V30 12526 H 1185.29 -2.28116 5.00243 0
M  V30 12527 H 1186.51 -2.88543 6.14752 0
M  V30 12528 H 1184.46 -4.58939 4.68734 0
M  V30 12529 H 1184.37 -4.10403 6.34906 0
M  V30 12530 H 1185.64 -5.17404 5.83021 0
M  V30 12531 N 1189.87 -1.5367 -0.349747 0
M  V30 12532 C 1191.12 -1.7087 -1.0923 0
M  V30 12533 C 1191.45 -0.467299 -1.88494 0
M  V30 12534 O 1190.72 0.535619 -1.8698 0
M  V30 12535 C 1191.01 -2.9684 -2.03858 0
M  V30 12536 C 1190.86 -4.31174 -1.28097 0
M  V30 12537 C 1192.18 -3.18459 -3.03763 0
M  V30 12538 H 1189.3 -0.621757 -0.395711 0
M  V30 12539 H 1191.94 -1.86333 -0.371481 0
M  V30 12540 H 1190.09 -2.83788 -2.65323 0
M  V30 12541 H 1191.76 -4.56066 -0.692933 0
M  V30 12542 H 1190.01 -4.29866 -0.582924 0
M  V30 12543 H 1190.68 -5.15482 -1.9744 0
M  V30 12544 H 1193.15 -3.30801 -2.52409 0
M  V30 12545 H 1192.03 -4.08006 -3.67182 0
M  V30 12546 H 1192.29 -2.34467 -3.74803 0
M  V30 12547 N 1191.35 0.610423 -1.45298 0
M  V30 12548 C 1192.6 1.36951 -1.49167 0
M  V30 12549 C 1192.92 1.9405 -0.132292 0
M  V30 12550 O 1192.18 1.75363 0.868686 0
M  V30 12551 C 1192.48 2.53812 -2.51623 0
M  V30 12552 C 1192.14 2.14877 -3.96407 0
M  V30 12553 C 1190.81 2.03972 -4.35831 0
M  V30 12554 C 1193.16 1.84448 -4.87472 0
M  V30 12555 C 1190.49 1.60856 -5.64218 0
M  V30 12556 C 1192.84 1.42818 -6.16268 0
M  V30 12557 C 1191.5 1.3047 -6.54625 0
M  V30 12558 H 1190.77 0.501138 -0.54584 0
M  V30 12559 H 1193.42 0.690221 -1.78629 0
M  V30 12560 H 1191.72 3.27066 -2.1572 0
M  V30 12561 H 1193.42 3.12041 -2.51856 0
M  V30 12562 H 1190.01 2.2429 -3.65229 0
M  V30 12563 H 1194.19 1.91771 -4.57753 0
M  V30 12564 H 1189.45 1.49916 -5.92735 0
M  V30 12565 H 1193.62 1.18318 -6.86275 0
M  V30 12566 H 1191.25 0.968347 -7.54007 0
M  V30 12567 N 1192.83 1.32541 0.852676 0
M  V30 12568 C 1194.1 1.1383 1.59067 0
M  V30 12569 C 1194.48 -0.300584 2.08949 0
M  V30 12570 O 1193.83 -1.29751 1.88088 0
M  V30 12571 C 1194.04 2.16758 2.73527 0
M  V30 12572 C 1195.39 2.50194 3.43057 0
M  V30 12573 O 1196.41 2.15319 2.83754 0
M  V30 12574 O 1195.27 3.09985 4.50079 0
M  V30 12575 H 1192.37 0.439379 0.700625 0
M  V30 12576 H 1194.91 1.44078 0.896632 0
M  V30 12577 H 1193.68 3.13469 2.34207 0
M  V30 12578 H 1193.31 1.87515 3.50605 0
M  V30 12579 N 1194.3 -1.0692 1.15784 0
M  V30 12580 C 1195.21 -2.17762 0.872753 0
M  V30 12581 C 1196.23 -1.73329 -0.152608 0
M  V30 12582 O 1197.41 -2.01387 0.022519 0
M  V30 12583 C 1194.47 -3.4471 0.370887 0
M  V30 12584 C 1193.53 -4.03686 1.46069 0
M  V30 12585 C 1192.77 -5.24575 0.982675 0
M  V30 12586 O 1192.99 -5.70146 -0.17006 0
M  V30 12587 O 1191.92 -5.7534 1.76828 0
M  V30 12588 H 1195.75 -2.44648 1.79948 0
M  V30 12589 H 1193.33 -1.1634 0.937303 0
M  V30 12590 H 1195.22 -4.21287 0.0976779 0
M  V30 12591 H 1193.89 -3.19366 -0.527912 0
M  V30 12592 H 1192.8 -3.28629 1.78756 0
M  V30 12593 H 1194.13 -4.33312 2.33456 0
M  V30 12594 N 1195.78 -0.955326 -1.25345 0
M  V30 12595 C 1197.03 -0.610484 -1.93079 0
M  V30 12596 C 1197.36 0.852591 -1.74817 0
M  V30 12597 O 1196.61 1.6272 -1.08723 0
M  V30 12598 C 1196.91 -0.916173 -3.45458 0
M  V30 12599 C 1196.58 -2.36539 -3.83875 0
M  V30 12600 C 1195.24 -2.76152 -3.94073 0
M  V30 12601 C 1197.59 -3.30652 -4.02888 0
M  V30 12602 C 1194.92 -4.08944 -4.20692 0
M  V30 12603 C 1197.27 -4.63057 -4.31 0
M  V30 12604 C 1195.94 -5.02464 -4.39415 0
M  V30 12605 H 1195.21 -0.223392 -0.706525 0
M  V30 12606 H 1197.85 -1.20449 -1.48877 0
M  V30 12607 H 1196.16 -0.23978 -3.91066 0
M  V30 12608 H 1197.85 -0.627929 -3.96053 0
M  V30 12609 H 1194.44 -2.04819 -3.76493 0
M  V30 12610 H 1198.63 -3.01237 -3.94423 0
M  V30 12611 H 1193.88 -4.39118 -4.25423 0
M  V30 12612 H 1198.06 -5.3596 -4.44657 0
M  V30 12613 H 1195.69 -6.05386 -4.59795 0
M  V30 12614 N 1197.26 1.39987 -0.723979 0
M  V30 12615 C 1198.21 2.30672 -0.0768286 0
M  V30 12616 C 1199.18 1.48634 0.741422 0
M  V30 12617 O 1200.36 1.77351 0.703649 0
M  V30 12618 C 1197.5 3.34902 0.832729 0
M  V30 12619 C 1196.62 4.32 0.00304942 0
M  V30 12620 C 1195.75 5.23298 0.91286 0
M  V30 12621 C 1194.79 6.12051 0.0777706 0
M  V30 12622 N 1193.93 6.9574 0.942912 0
M  V30 12623 H 1198.77 2.85446 -0.855832 0
M  V30 12624 H 1196.3 1.40561 -0.433718 0
M  V30 12625 H 1198.26 3.93911 1.37441 0
M  V30 12626 H 1196.89 2.81611 1.57782 0
M  V30 12627 H 1195.94 3.74702 -0.655916 0
M  V30 12628 H 1197.26 4.94637 -0.643124 0
M  V30 12629 H 1196.41 5.87279 1.52277 0
M  V30 12630 H 1195.15 4.60956 1.59284 0
M  V30 12631 H 1194.15 5.47092 -0.545022 0
M  V30 12632 H 1195.38 6.76455 -0.598827 0
M  V30 12633 H 1193.33 6.35977 1.60838 0
M  V30 12634 H 1193.24 7.55176 0.352968 0
M  V30 12635 H 1194.51 7.64162 1.53874 0
M  V30 12636 N 1198.74 0.470782 1.50404 0
M  V30 12637 C 1200.15 0.0155901 1.86693 0
M  V30 12638 C 1200.5 -1.38908 1.38561 0
M  V30 12639 O 1199.63 -2.02971 0.750454 0
M  V30 12640 C 1200.22 0.0215152 3.38793 0
M  V30 12641 C 1198.78 -0.378206 3.74495 0
M  V30 12642 C 1197.93 0.407126 2.74295 0
M  V30 12643 H 1200.88 0.68507 1.43152 0
M  V30 12644 H 1200.9 -0.780717 3.72404 0
M  V30 12645 H 1200.41 1.04397 3.73795 0
M  V30 12646 H 1198.51 -1.40503 3.45094 0
M  V30 12647 H 1198.63 -0.0797643 4.79034 0
M  V30 12648 H 1196.99 -0.139123 2.5432 0
M  V30 12649 H 1197.77 1.42909 3.12141 0
M  V30 12650 N 1200.22 -1.56282 0.203376 0
M  V30 12651 C 1201.15 -2.2247 -0.709183 0
M  V30 12652 C 1202.13 -1.19046 -1.21499 0
M  V30 12653 O 1203.31 -1.47578 -1.26231 0
M  V30 12654 C 1200.44 -2.8905 -1.92529 0
M  V30 12655 C 1199.4 -3.98789 -1.55407 0
M  V30 12656 C 1198.72 -4.52574 -2.84747 0
M  V30 12657 C 1200.02 -5.16774 -0.75775 0
M  V30 12658 H 1201.72 -2.98986 -0.157392 0
M  V30 12659 H 1199.26 -1.43808 -0.0742613 0
M  V30 12660 H 1201.22 -3.34038 -2.56898 0
M  V30 12661 H 1199.94 -2.09952 -2.50175 0
M  V30 12662 H 1198.6 -3.54504 -0.933928 0
M  V30 12663 H 1198.25 -3.70229 -3.40499 0
M  V30 12664 H 1197.95 -5.26627 -2.6065 0
M  V30 12665 H 1199.47 -5.00269 -3.5009 0
M  V30 12666 H 1200.89 -5.58256 -1.30472 0
M  V30 12667 H 1199.28 -5.96945 -0.614583 0
M  V30 12668 H 1200.35 -4.84308 0.239476 0
M  V30 12669 N 1201.7 0.070167 -1.57444 0
M  V30 12670 C 1202.94 0.770153 -1.87607 0
M  V30 12671 C 1203.27 1.77143 -0.795875 0
M  V30 12672 O 1202.55 1.93533 0.193674 0
M  V30 12673 C 1202.83 1.47668 -3.2843 0
M  V30 12674 C 1202.69 0.491712 -4.47104 0
M  V30 12675 C 1204 2.42118 -3.67514 0
M  V30 12676 H 1201.12 0.278519 -0.682346 0
M  V30 12677 H 1203.77 0.0333184 -1.89971 0
M  V30 12678 H 1201.92 2.10476 -3.26546 0
M  V30 12679 H 1203.59 -0.131283 -4.61113 0
M  V30 12680 H 1201.83 -0.192817 -4.33371 0
M  V30 12681 H 1202.5 1.02372 -5.42424 0
M  V30 12682 H 1204.98 1.89387 -3.70502 0
M  V30 12683 H 1203.85 2.88556 -4.66933 0
M  V30 12684 H 1204.11 3.26995 -2.97534 0
M  V30 12685 N 1203.17 1.53854 0.341593 0
M  V30 12686 C 1204.08 1.84975 1.44297 0
M  V30 12687 C 1205.1 0.740057 1.57477 0
M  V30 12688 O 1206.28 1.03256 1.72917 0
M  V30 12689 C 1203.34 2.05464 2.79259 0
M  V30 12690 C 1202.4 3.29318 2.75405 0
M  V30 12691 C 1201.63 3.4882 4.03931 0
M  V30 12692 O 1201.86 2.7212 5.01305 0
M  V30 12693 O 1200.79 4.42253 4.08284 0
M  V30 12694 H 1204.62 2.78592 1.20913 0
M  V30 12695 H 1202.2 1.39532 0.533953 0
M  V30 12696 H 1204.08 2.20374 3.59184 0
M  V30 12697 H 1202.76 1.15035 3.0257 0
M  V30 12698 H 1201.67 3.1981 1.94094 0
M  V30 12699 H 1203 4.19746 2.57049 0
M  V30 12700 N 1204.65 -0.602709 1.4562 0
M  V30 12701 C 1205.56 -1.74132 1.5721 0
M  V30 12702 C 1206.58 -1.67909 0.456347 0
M  V30 12703 O 1207.75 -1.88178 0.717714 0
M  V30 12704 C 1204.82 -3.10604 1.54032 0
M  V30 12705 C 1203.88 -3.28244 2.76685 0
M  V30 12706 C 1203.11 -4.58205 2.73649 0
M  V30 12707 O 1203.34 -5.40836 1.81254 0
M  V30 12708 O 1202.27 -4.78663 3.64919 0
M  V30 12709 H 1206.1 -1.67304 2.53462 0
M  V30 12710 H 1203.68 -0.767381 1.28186 0
M  V30 12711 H 1205.56 -3.91904 1.54885 0
M  V30 12712 H 1204.24 -3.17913 0.60934 0
M  V30 12713 H 1203.14 -2.46514 2.81393 0
M  V30 12714 H 1204.48 -3.25814 3.68925 0
M  V30 12715 N 1206.13 -1.32992 -0.845635 0
M  V30 12716 C 1207.54 -1.21616 -1.41656 0
M  V30 12717 C 1207.89 0.167687 -1.95482 0
M  V30 12718 O 1207.02 1.06692 -1.8827 0
M  V30 12719 C 1207.61 -2.2018 -2.575 0
M  V30 12720 C 1206.17 -2.12664 -3.10565 0
M  V30 12721 C 1205.32 -2.08042 -1.83341 0
M  V30 12722 H 1208.27 -1.44688 -0.651993 0
M  V30 12723 H 1208.29 -1.80558 -3.34931 0
M  V30 12724 H 1207.8 -3.20888 -2.18294 0
M  V30 12725 H 1205.9 -1.15235 -3.54333 0
M  V30 12726 H 1206.02 -3.02902 -3.71197 0
M  V30 12727 H 1204.38 -1.53416 -2.03312 0
M  V30 12728 H 1205.16 -3.10547 -1.46339 0
M  V30 12729 N 1207.61 1.06304 -1.1635 0
M  V30 12730 C 1208.54 2.13732 -0.827721 0
M  V30 12731 C 1209.55 1.61962 0.164983 0
M  V30 12732 O 1210.74 1.784 -0.0597591 0
M  V30 12733 C 1207.84 3.38239 -0.211623 0
M  V30 12734 C 1207.01 4.19325 -1.2444 0
M  V30 12735 C 1206.07 5.22193 -0.648127 0
M  V30 12736 O 1205.1 5.53755 -1.31695 0
M  V30 12737 N 1206.3 5.77742 0.565179 0
M  V30 12738 H 1209.07 2.43136 -1.75228 0
M  V30 12739 H 1206.63 1.22304 -1.06081 0
M  V30 12740 H 1208.62 4.04204 0.200306 0
M  V30 12741 H 1207.19 3.06461 0.616491 0
M  V30 12742 H 1206.41 3.49017 -1.83251 0
M  V30 12743 H 1207.7 4.70306 -1.94138 0
M  V30 12744 H 1207.1 5.54366 1.12673 0
M  V30 12745 H 1205.65 6.45284 0.919321 0
M  V30 12746 N 1209.09 0.96196 1.24836 0
M  V30 12747 C 1210.03 0.479282 2.27609 0
M  V30 12748 C 1211.03 -0.454224 1.63197 0
M  V30 12749 O 1212.23 -0.330146 1.76946 0
M  V30 12750 H 1208.61 0.13651 0.739506 0
M  V30 12751 H 1210.58 1.35817 2.657 0
M  V30 12752 C 1209.33 -0.220499 3.47 0
M  V30 12753 H 1208.65 0.488694 3.96802 0
M  V30 12754 H 1210.09 -0.522137 4.20773 0
M  V30 12755 C 1208.55 -1.44552 3.04313 0
M  V30 12756 O 1209.08 -2.54287 3.10967 0
M  V30 12757 N 1207.29 -1.3095 2.59423 0
M  V30 12758 H 1206.83 -0.416656 2.54208 0
M  V30 12759 H 1206.79 -2.13029 2.31227 0
M  V30 12760 N 1210.56 -1.39601 0.731392 0
M  V30 12761 C 1211.49 -2.33268 0.1041 0
M  V30 12762 C 1212.47 -1.53724 -0.728219 0
M  V30 12763 O 1213.66 -1.82131 -0.673933 0
M  V30 12764 C 1210.79 -3.37802 -0.806646 0
M  V30 12765 C 1209.74 -4.27928 -0.0787588 0
M  V30 12766 C 1209.07 -5.23131 -1.10628 0
M  V30 12767 C 1210.37 -5.11086 1.07651 0
M  V30 12768 H 1212.06 -2.85975 0.886496 0
M  V30 12769 H 1209.61 -1.375 0.427746 0
M  V30 12770 H 1211.56 -4.02278 -1.25499 0
M  V30 12771 H 1210.29 -2.83527 -1.62112 0
M  V30 12772 H 1208.95 -3.64926 0.349926 0
M  V30 12773 H 1208.59 -4.65152 -1.91422 0
M  V30 12774 H 1208.29 -5.84277 -0.624043 0
M  V30 12775 H 1209.82 -5.90483 -1.5544 0
M  V30 12776 H 1211.23 -5.68927 0.706781 0
M  V30 12777 H 1209.63 -5.81356 1.48814 0
M  V30 12778 H 1210.7 -4.46131 1.89988 0
M  V30 12779 N 1212.04 -0.478751 -1.50152 0
M  V30 12780 C 1213.29 0.07531 -2.01559 0
M  V30 12781 C 1213.6 1.40089 -1.36508 0
M  V30 12782 O 1214.81 2.04035 -1.79115 0
M  V30 12783 C 1213.27 0.184714 -3.59426 0
M  V30 12784 C 1212.87 -1.13289 -4.33439 0
M  V30 12785 C 1214.62 0.690326 -4.18849 0
M  V30 12786 C 1212.53 -0.986866 -5.83108 0
M  V30 12787 H 1211.46 0.0319196 -0.753324 0
M  V30 12788 H 1214.11 -0.614809 -1.72894 0
M  V30 12789 H 1212.49 0.938788 -3.84711 0
M  V30 12790 H 1213.66 -1.89852 -4.19872 0
M  V30 12791 H 1211.98 -1.57021 -3.8566 0
M  V30 12792 H 1214.57 0.816733 -5.28426 0
M  V30 12793 H 1214.92 1.68361 -3.80737 0
M  V30 12794 H 1215.45 -0.00657846 -3.97799 0
M  V30 12795 H 1212.19 -1.95375 -6.25707 0
M  V30 12796 H 1211.71 -0.261752 -5.99229 0
M  V30 12797 H 1213.39 -0.656567 -6.4366 0
M  V30 12798 N 1213.52 1.56172 -0.211661 0
M  V30 12799 C 1214.47 2.19849 0.702515 0
M  V30 12800 C 1215.44 1.15091 1.19763 0
M  V30 12801 O 1216.62 1.43408 1.25852 0
M  V30 12802 C 1213.76 2.87468 1.90935 0
M  V30 12803 C 1212.88 4.06794 1.45406 0
M  V30 12804 C 1212.01 4.62224 2.61769 0
M  V30 12805 C 1211.05 5.73872 2.12926 0
M  V30 12806 N 1210.19 6.23635 3.22526 0
M  V30 12807 H 1215.03 2.97608 0.152777 0
M  V30 12808 H 1212.56 1.46962 0.0636596 0
M  V30 12809 H 1214.52 3.24851 2.61777 0
M  V30 12810 H 1213.15 2.12244 2.43213 0
M  V30 12811 H 1212.2 3.74962 0.640907 0
M  V30 12812 H 1213.52 4.87497 1.05584 0
M  V30 12813 H 1212.67 5.01999 3.40709 0
M  V30 12814 H 1211.41 3.80662 3.04873 0
M  V30 12815 H 1210.41 5.33609 1.32445 0
M  V30 12816 H 1211.64 6.57262 1.70833 0
M  V30 12817 H 1209.58 5.44991 3.65131 0
M  V30 12818 H 1209.5 6.99435 2.86926 0
M  V30 12819 H 1210.77 6.68066 4.01631 0
M  V30 12820 N 1215 -0.0618163 1.57479 0
M  V30 12821 C 1215.93 -1.09931 2.01116 0
M  V30 12822 C 1216.94 -1.34405 0.91865 0
M  V30 12823 O 1218.13 -1.32469 1.19642 0
M  V30 12824 C 1215.23 -2.44814 2.34349 0
M  V30 12825 C 1214.41 -2.40157 3.65573 0
M  V30 12826 C 1213.46 -3.57226 3.86363 0
M  V30 12827 O 1212.49 -3.38202 4.5783 0
M  V30 12828 N 1213.69 -4.77937 3.2948 0
M  V30 12829 H 1216.46 -0.727621 2.90733 0
M  V30 12830 H 1214.02 -0.250315 1.59953 0
M  V30 12831 H 1216.01 -3.21792 2.45422 0
M  V30 12832 H 1214.58 -2.73947 1.50571 0
M  V30 12833 H 1213.8 -1.48496 3.65161 0
M  V30 12834 H 1215.09 -2.34156 4.51717 0
M  V30 12835 H 1214.49 -4.96296 2.7149 0
M  V30 12836 H 1213.04 -5.52392 3.45986 0
M  V30 12837 N 1216.48 -1.54033 -0.333429 0
M  V30 12838 C 1217.42 -1.83441 -1.43011 0
M  V30 12839 C 1218.42 -0.705592 -1.54006 0
M  V30 12840 O 1219.62 -0.889098 -1.56509 0
M  V30 12841 H 1216 -0.581326 -0.477037 0
M  V30 12842 H 1217.97 -2.75172 -1.15426 0
M  V30 12843 C 1216.72 -2.0698 -2.79382 0
M  V30 12844 H 1216.04 -2.93297 -2.71692 0
M  V30 12845 H 1217.48 -2.31517 -3.55212 0
M  V30 12846 C 1215.94 -0.85835 -3.25782 0
M  V30 12847 O 1216.47 -0.062739 -4.01651 0
M  V30 12848 N 1214.68 -0.672738 -2.82706 0
M  V30 12849 H 1214.22 -1.32136 -2.21128 0
M  V30 12850 H 1214.18 0.136347 -3.14104 0
M  V30 12851 N 1217.95 0.594978 -1.45938 0
M  V30 12852 C 1219.19 1.36479 -1.52161 0
M  V30 12853 C 1219.56 1.91296 -0.164295 0
M  V30 12854 O 1220.76 2.68609 -0.101247 0
M  V30 12855 C 1219.03 2.47286 -2.5804 0
M  V30 12856 S 1220.59 3.34855 -2.8358 0
M  V30 12857 H 1217.41 0.465134 -0.537746 0
M  V30 12858 H 1220.01 0.685257 -1.83097 0
M  V30 12859 H 1218.71 2.05386 -3.5531 0
M  V30 12860 H 1218.24 3.20025 -2.28795 0
M  V30 12861 H 1220.26 4.45788 -2.17916 0
M  V30 12862 N 1219.43 1.33438 0.838571 0
M  V30 12863 C 1220.34 1.25753 1.98049 0
M  V30 12864 C 1221.36 0.168051 1.73187 0
M  V30 12865 O 1222.53 0.391691 1.97554 0
M  V30 12866 C 1219.6 0.997148 3.32051 0
M  V30 12867 C 1218.66 2.17667 3.70027 0
M  V30 12868 C 1217.89 1.92861 4.97635 0
M  V30 12869 O 1218.12 0.879072 5.63585 0
M  V30 12870 O 1217.05 2.79402 5.33121 0
M  V30 12871 H 1220.88 2.21786 2.07472 0
M  V30 12872 H 1218.46 1.13488 0.971645 0
M  V30 12873 H 1220.34 0.869099 4.1234 0
M  V30 12874 H 1219.02 0.0671036 3.2363 0
M  V30 12875 H 1217.93 2.36025 2.90246 0
M  V30 12876 H 1219.26 3.09006 3.83114 0
M  V30 12877 N 1220.91 -1.05686 1.16912 0
M  V30 12878 C 1221.84 -2.15268 0.904532 0
M  V30 12879 C 1222.82 -1.69424 -0.151548 0
M  V30 12880 O 1224.01 -1.942 -0.00235371 0
M  V30 12881 C 1221.14 -3.44853 0.411581 0
M  V30 12882 C 1220.09 -4.04237 1.40628 0
M  V30 12883 C 1219.42 -5.29105 0.771479 0
M  V30 12884 C 1220.72 -4.42303 2.77787 0
M  V30 12885 H 1222.41 -2.37659 1.82094 0
M  V30 12886 H 1219.96 -1.14217 0.876947 0
M  V30 12887 H 1221.91 -4.20857 0.213929 0
M  V30 12888 H 1220.63 -3.22099 -0.540352 0
M  V30 12889 H 1219.29 -3.30297 1.59058 0
M  V30 12890 H 1218.94 -5.02652 -0.187133 0
M  V30 12891 H 1218.64 -5.69797 1.43545 0
M  V30 12892 H 1220.16 -6.07801 0.583988 0
M  V30 12893 H 1221.58 -5.09362 2.63103 0
M  V30 12894 H 1219.98 -4.93997 3.40716 0
M  V30 12895 H 1221.05 -3.52877 3.32575 0
M  V30 12896 N 1222.39 -0.968567 -1.24324 0
M  V30 12897 C 1223.64 -0.630928 -1.9242 0
M  V30 12898 C 1223.96 0.834001 -1.75712 0
M  V30 12899 O 1223.22 1.61558 -1.10442 0
M  V30 12900 C 1223.52 -0.952762 -3.44467 0
M  V30 12901 C 1223.18 -2.40597 -3.81345 0
M  V30 12902 C 1221.85 -2.80316 -3.91122 0
M  V30 12903 C 1224.2 -3.34906 -3.99359 0
M  V30 12904 C 1221.53 -4.13383 -4.16331 0
M  V30 12905 C 1223.88 -4.67602 -4.26065 0
M  V30 12906 C 1222.54 -5.07097 -4.34061 0
M  V30 12907 H 1221.81 -0.230873 -0.704116 0
M  V30 12908 H 1224.46 -1.22022 -1.47591 0
M  V30 12909 H 1222.76 -0.281244 -3.90789 0
M  V30 12910 H 1224.46 -0.6699 -3.95365 0
M  V30 12911 H 1221.05 -2.088 -3.743 0
M  V30 12912 H 1225.23 -3.05404 -3.91206 0
M  V30 12913 H 1220.49 -4.43606 -4.20742 0
M  V30 12914 H 1224.66 -5.40646 -4.38948 0
M  V30 12915 H 1222.29 -6.10229 -4.53349 0
M  V30 12916 N 1223.87 1.39211 -0.738786 0
M  V30 12917 C 1224.78 2.34374 -0.102958 0
M  V30 12918 C 1225.79 1.58514 0.717596 0
M  V30 12919 O 1226.97 1.90786 0.645186 0
M  V30 12920 C 1224.03 3.37562 0.790733 0
M  V30 12921 C 1223.09 4.29279 -0.0425028 0
M  V30 12922 C 1222.33 5.27539 0.808628 0
M  V30 12923 O 1222.55 5.32396 2.04722 0
M  V30 12924 O 1221.48 6.0144 0.235279 0
M  V30 12925 H 1225.31 2.90412 -0.888498 0
M  V30 12926 H 1222.9 1.40803 -0.499498 0
M  V30 12927 H 1224.78 4.00783 1.30196 0
M  V30 12928 H 1223.45 2.83903 1.55502 0
M  V30 12929 H 1222.36 3.69268 -0.599335 0
M  V30 12930 H 1223.69 4.86154 -0.7691 0
M  V30 12931 N 1225.34 0.486708 1.49896 0
M  V30 12932 C 1226.28 -0.335809 2.26727 0
M  V30 12933 C 1227.29 -0.94333 1.32684 0
M  V30 12934 O 1228.48 -0.82909 1.58077 0
M  V30 12935 C 1225.58 -1.48642 3.04563 0
M  V30 12936 C 1224.75 -0.988837 4.26076 0
M  V30 12937 C 1223.81 -2.01535 4.86076 0
M  V30 12938 O 1222.84 -1.58966 5.46552 0
M  V30 12939 N 1224.04 -3.34471 4.74457 0
M  V30 12940 H 1226.8 0.322919 2.97955 0
M  V30 12941 H 1224.36 0.318403 1.58738 0
M  V30 12942 H 1226.36 -2.17039 3.41579 0
M  V30 12943 H 1224.93 -2.04956 2.36033 0
M  V30 12944 H 1224.15 -0.130232 3.93985 0
M  V30 12945 H 1225.43 -0.634562 5.04827 0
M  V30 12946 H 1224.83 -3.71755 4.26398 0
M  V30 12947 H 1223.39 -3.98621 5.15698 0
M  V30 12948 N 1226.82 -1.56058 0.219941 0
M  V30 12949 C 1227.75 -2.2321 -0.685547 0
M  V30 12950 C 1228.73 -1.20328 -1.20229 0
M  V30 12951 O 1229.92 -1.48909 -1.24659 0
M  V30 12952 C 1227.05 -2.91076 -1.89452 0
M  V30 12953 C 1226 -4.00415 -1.51169 0
M  V30 12954 C 1225.33 -4.55569 -2.79931 0
M  V30 12955 C 1226.63 -5.17549 -0.702896 0
M  V30 12956 H 1228.32 -2.99136 -0.125671 0
M  V30 12957 H 1225.87 -1.43879 -0.0590043 0
M  V30 12958 H 1227.82 -3.36744 -2.53341 0
M  V30 12959 H 1226.55 -2.12594 -2.47934 0
M  V30 12960 H 1225.21 -3.55475 -0.896275 0
M  V30 12961 H 1224.85 -3.73819 -3.36553 0
M  V30 12962 H 1224.55 -5.29361 -2.55049 0
M  V30 12963 H 1226.08 -5.03955 -3.44764 0
M  V30 12964 H 1227.49 -5.59608 -1.24544 0
M  V30 12965 H 1225.89 -5.97563 -0.551234 0
M  V30 12966 H 1226.96 -4.84027 0.29083 0
M  V30 12967 N 1228.3 0.053464 -1.57509 0
M  V30 12968 C 1229.55 0.747622 -1.87763 0
M  V30 12969 C 1229.87 1.77178 -0.814433 0
M  V30 12970 O 1229.14 1.95287 0.154862 0
M  V30 12971 H 1227.72 0.279109 -0.692898 0
M  V30 12972 H 1230.38 0.0252006 -1.94884 0
M  V30 12973 H 1229.48 1.25244 -2.85868 0
M  V30 12974 N 1229.78 1.54207 0.325255 0
M  V30 12975 C 1230.69 1.86495 1.42326 0
M  V30 12976 C 1231.71 0.756718 1.56684 0
M  V30 12977 O 1232.88 1.05084 1.71812 0
M  V30 12978 C 1229.95 2.08414 2.77064 0
M  V30 12979 C 1229.01 3.32221 2.71897 0
M  V30 12980 C 1228.24 3.53085 4.00209 0
M  V30 12981 O 1228.46 2.77421 4.98391 0
M  V30 12982 O 1227.4 4.46559 4.0357 0
M  V30 12983 H 1231.22 2.79859 1.17951 0
M  V30 12984 H 1228.81 1.40091 0.519124 0
M  V30 12985 H 1230.69 2.24171 3.56827 0
M  V30 12986 H 1229.37 1.18238 3.01333 0
M  V30 12987 H 1228.27 3.21851 1.90691 0
M  V30 12988 H 1229.61 4.22449 2.52582 0
M  V30 12989 N 1231.26 -0.58723 1.46251 0
M  V30 12990 C 1232.49 -1.36976 1.54665 0
M  V30 12991 C 1232.9 -1.88293 0.185079 0
M  V30 12992 O 1232.24 -1.64028 -0.82707 0
M  V30 12993 C 1232.3 -2.59591 2.48702 0
M  V30 12994 C 1231.96 -2.29773 3.95036 0
M  V30 12995 C 1232.96 -1.88885 4.84374 0
M  V30 12996 C 1230.65 -2.42057 4.40129 0
M  V30 12997 C 1232.64 -1.60669 6.16818 0
M  V30 12998 C 1230.33 -2.13454 5.72609 0
M  V30 12999 C 1231.33 -1.72824 6.60773 0
M  V30 13000 O 1231.01 -1.44569 7.90794 0
M  V30 13001 H 1230.75 -0.424968 0.525717 0
M  V30 13002 H 1233.3 -0.721298 1.92319 0
M  V30 13003 H 1231.53 -3.27226 2.06058 0
M  V30 13004 H 1233.22 -3.21656 2.47573 0
M  V30 13005 H 1233.98 -1.78913 4.50794 0
M  V30 13006 H 1229.86 -2.72644 3.71734 0
M  V30 13007 H 1233.41 -1.28882 6.85591 0
M  V30 13008 H 1229.3 -2.23048 6.05739 0
M  V30 13009 H 1230.07 -1.58452 8.03016 0
M  V30 13010 N 1232.74 -1.33881 -0.831482 0
M  V30 13011 C 1233.68 -1.24748 -1.94182 0
M  V30 13012 C 1234.65 -0.124516 -1.65633 0
M  V30 13013 O 1235.84 -0.304045 -1.88362 0
M  V30 13014 C 1232.98 -1.00016 -3.30289 0
M  V30 13015 C 1232.09 -2.21007 -3.71187 0
M  V30 13016 C 1231.23 -1.89629 -4.962 0
M  V30 13017 C 1230.26 -3.06811 -5.29654 0
M  V30 13018 N 1229.4 -2.75372 -6.45844 0
M  V30 13019 H 1234.24 -2.19709 -2.01325 0
M  V30 13020 H 1231.78 -1.09245 -0.985081 0
M  V30 13021 H 1233.74 -0.837167 -4.08714 0
M  V30 13022 H 1232.37 -0.0872582 -3.22682 0
M  V30 13023 H 1231.42 -2.48256 -2.88224 0
M  V30 13024 H 1232.73 -3.08587 -3.91887 0
M  V30 13025 H 1231.88 -1.70016 -5.82391 0
M  V30 13026 H 1230.62 -0.992964 -4.77485 0
M  V30 13027 H 1229.63 -3.27029 -4.41964 0
M  V30 13028 H 1230.85 -3.97909 -5.50314 0
M  V30 13029 H 1228.8 -1.87607 -6.28601 0
M  V30 13030 H 1228.72 -3.56483 -6.66675 0
M  V30 13031 H 1229.98 -2.59244 -7.35128 0
M  V30 13032 N 1234.21 1.05064 -1.1747 0
M  V30 13033 C 1235.46 1.78089 -0.963883 0
M  V30 13034 C 1235.79 1.87766 0.507365 0
M  V30 13035 O 1235.04 1.37477 1.39279 0
M  V30 13036 C 1235.34 3.21961 -1.55164 0
M  V30 13037 C 1235.01 3.32339 -3.04732 0
M  V30 13038 C 1233.67 3.34878 -3.45557 0
M  V30 13039 C 1236.02 3.3325 -4.00741 0
M  V30 13040 C 1233.35 3.35959 -4.80987 0
M  V30 13041 C 1235.7 3.3587 -5.36073 0
M  V30 13042 C 1234.37 3.36697 -5.7636 0
M  V30 13043 H 1233.64 0.651672 -0.35271 0
M  V30 13044 H 1236.28 1.23471 -1.4638 0
M  V30 13045 H 1234.59 3.79514 -0.973471 0
M  V30 13046 H 1236.29 3.77087 -1.36406 0
M  V30 13047 H 1232.88 3.31076 -2.72188 0
M  V30 13048 H 1237.06 3.30488 -3.70258 0
M  V30 13049 H 1232.32 3.34911 -5.11512 0
M  V30 13050 H 1236.49 3.35524 -6.10243 0
M  V30 13051 H 1234.12 3.37288 -6.81279 0
M  V30 13052 N 1235.69 0.975146 1.23809 0
M  V30 13053 C 1236.62 0.469151 2.24347 0
M  V30 13054 C 1237.64 -0.426156 1.57123 0
M  V30 13055 O 1238.83 -0.231136 1.76997 0
M  V30 13056 C 1235.93 -0.34121 3.37178 0
M  V30 13057 C 1235.1 0.545968 4.33979 0
M  V30 13058 C 1234.16 -0.209648 5.25782 0
M  V30 13059 O 1233.18 0.398953 5.678 0
M  V30 13060 N 1234.39 -1.49713 5.60862 0
M  V30 13061 H 1237.15 1.33359 2.68394 0
M  V30 13062 H 1234.71 0.847814 1.37927 0
M  V30 13063 H 1236.7 -0.854924 3.95567 0
M  V30 13064 H 1235.27 -1.10663 2.92357 0
M  V30 13065 H 1234.49 1.24057 3.7417 0
M  V30 13066 H 1235.78 1.15077 4.95615 0
M  V30 13067 H 1235.18 -2.0132 5.28665 0
M  V30 13068 H 1233.74 -1.95639 6.21746 0
M  V30 13069 N 1237.17 -1.38817 0.746158 0
M  V30 13070 C 1238.12 -2.32373 0.102785 0
M  V30 13071 C 1239.11 -1.53638 -0.713556 0
M  V30 13072 O 1240.32 -1.69223 -0.613488 0
M  V30 13073 H 1236.69 -0.751861 0.0144405 0
M  V30 13074 H 1238.66 -2.84249 0.908032 0
M  V30 13075 C 1237.41 -3.38796 -0.781827 0
M  V30 13076 H 1236.74 -3.99467 -0.163057 0
M  V30 13077 H 1238.18 -4.06682 -1.19941 0
M  V30 13078 C 1236.63 -2.76756 -1.92113 0
M  V30 13079 O 1237.16 -2.65478 -3.0147 0
M  V30 13080 N 1235.37 -2.34676 -1.71392 0
M  V30 13081 H 1234.92 -2.44049 -0.824483 0
M  V30 13082 H 1234.88 -1.93508 -2.47794 0
M  V30 13083 N 1238.65 -0.49465 -1.49636 0
M  V30 13084 C 1239.61 0.276064 -2.27531 0
M  V30 13085 C 1240.61 0.899619 -1.3328 0
M  V30 13086 O 1241.8 0.765136 -1.56497 0
M  V30 13087 C 1238.93 1.39547 -3.1103 0
M  V30 13088 H 1240.13 -0.407381 -2.9712 0
M  V30 13089 H 1237.68 -0.249416 -1.54297 0
M  V30 13090 H 1238.41 2.11326 -2.45992 0
M  V30 13091 H 1238.2 0.953877 -3.8032 0
M  V30 13092 H 1239.69 1.93853 -3.69879 0
M  V30 13093 N 1240.13 1.55939 -0.228214 0
M  V30 13094 C 1241.06 2.2357 0.6737 0
M  V30 13095 C 1242.04 1.20964 1.1959 0
M  V30 13096 O 1243.22 1.49568 1.23867 0
M  V30 13097 C 1240.35 2.92076 1.87906 0
M  V30 13098 C 1239.31 4.01211 1.49043 0
M  V30 13099 C 1238.63 4.57047 2.77511 0
M  V30 13100 C 1239.93 5.17914 0.67544 0
M  V30 13101 H 1241.63 2.99199 0.109806 0
M  V30 13102 H 1239.17 1.43908 0.0513732 0
M  V30 13103 H 1241.12 3.38083 2.51551 0
M  V30 13104 H 1239.85 2.13906 2.46803 0
M  V30 13105 H 1238.51 3.55945 0.877411 0
M  V30 13106 H 1238.16 3.75599 3.34566 0
M  V30 13107 H 1237.86 5.30707 2.52239 0
M  V30 13108 H 1239.38 5.05776 3.42087 0
M  V30 13109 H 1240.79 5.60261 1.21575 0
M  V30 13110 H 1239.19 5.97847 0.519536 0
M  V30 13111 H 1240.26 4.83866 -0.316495 0
M  V30 13112 N 1241.6 -0.0451101 1.57535 0
M  V30 13113 C 1242.53 -1.05046 2.08537 0
M  V30 13114 C 1243.52 -1.3872 0.984418 0
M  V30 13115 O 1244.7 -1.47884 1.25873 0
M  V30 13116 C 1241.83 -2.3562 2.55148 0
M  V30 13117 C 1240.78 -2.16231 3.69362 0
M  V30 13118 C 1240.11 -3.52423 4.02122 0
M  V30 13119 C 1241.41 -1.56159 4.98409 0
M  V30 13120 H 1243.1 -0.625965 2.92783 0
M  V30 13121 H 1240.65 -0.299657 1.40848 0
M  V30 13122 H 1242.6 -3.06266 2.89446 0
M  V30 13123 H 1241.33 -2.80099 1.67964 0
M  V30 13124 H 1239.99 -1.4802 3.35389 0
M  V30 13125 H 1239.63 -3.94522 3.12028 0
M  V30 13126 H 1239.33 -3.4028 4.79044 0
M  V30 13127 H 1240.86 -4.24458 4.38939 0
M  V30 13128 H 1242.27 -2.16703 5.30766 0
M  V30 13129 H 1240.67 -1.54638 5.79834 0
M  V30 13130 H 1241.74 -0.525698 4.82042 0
M  V30 13131 N 1243.08 -1.54377 -0.317073 0
M  V30 13132 C 1244.33 -1.73149 -1.05581 0
M  V30 13133 C 1244.66 -0.507176 -1.8746 0
M  V30 13134 O 1243.94 0.495837 -1.88074 0
M  V30 13135 C 1244.22 -3.01098 -1.97515 0
M  V30 13136 C 1244.07 -4.33794 -1.18922 0
M  V30 13137 C 1245.39 -3.24831 -2.9694 0
M  V30 13138 H 1242.51 -0.630011 -0.382434 0
M  V30 13139 H 1245.15 -1.87079 -0.331873 0
M  V30 13140 H 1243.3 -2.89352 -2.59244 0
M  V30 13141 H 1244.97 -4.57433 -0.596039 0
M  V30 13142 H 1243.22 -4.31005 -0.491612 0
M  V30 13143 H 1243.89 -5.19554 -1.86462 0
M  V30 13144 H 1246.36 -3.3608 -2.45335 0
M  V30 13145 H 1245.24 -4.15702 -3.58445 0
M  V30 13146 H 1245.5 -2.42365 -3.69745 0
M  V30 13147 N 1244.56 0.579466 -1.4656 0
M  V30 13148 C 1245.98 0.903163 -1.31587 0
M  V30 13149 C 1246.18 1.99406 -0.28972 0
M  V30 13150 O 1245.23 2.50632 0.30658 0
M  V30 13151 C 1246.55 1.31745 -2.70303 0
M  V30 13152 C 1248.09 1.43012 -2.78418 0
M  V30 13153 C 1248.57 1.87805 -4.17724 0
M  V30 13154 N 1250.06 1.94993 -4.20157 0
M  V30 13155 C 1250.79 2.30934 -5.2484 0
M  V30 13156 N 1250.29 2.65645 -6.39847 0
M  V30 13157 N 1252.08 2.31517 -5.12207 0
M  V30 13158 H 1244.23 -0.141111 -2.11931 0
M  V30 13159 H 1246.5 -0.000460304 -0.948 0
M  V30 13160 H 1246.2 0.589864 -3.46718 0
M  V30 13161 H 1246.08 2.2783 -3.00622 0
M  V30 13162 H 1248.46 2.14856 -2.02289 0
M  V30 13163 H 1248.55 0.451701 -2.5178 0
M  V30 13164 H 1248.19 1.16539 -4.94349 0
M  V30 13165 H 1248.12 2.86611 -4.41771 0
M  V30 13166 H 1250.61 1.70645 -3.37178 0
M  V30 13167 H 1250.92 2.92032 -7.15498 0
M  V30 13168 H 1249.27 2.63276 -6.43204 0
M  V30 13169 H 1252.46 2.03824 -4.21394 0
M  V30 13170 H 1252.63 2.59199 -5.93902 0
M  V30 13171 N 1246.04 1.3432 0.824371 0
M  V30 13172 C 1247.27 1.29481 1.60992 0
M  V30 13173 C 1247.68 -0.133581 1.88728 0
M  V30 13174 O 1247.02 -1.09065 1.4782 0
M  V30 13175 C 1247.08 2.01604 2.97651 0
M  V30 13176 C 1246.75 3.50866 2.92817 0
M  V30 13177 C 1247.74 4.458 2.67504 0
M  V30 13178 C 1245.43 3.93258 3.12495 0
M  V30 13179 C 1247.42 5.81101 2.61918 0
M  V30 13180 C 1245.11 5.28659 3.06533 0
M  V30 13181 C 1246.11 6.22392 2.81278 0
M  V30 13182 O 1245.79 7.55311 2.75246 0
M  V30 13183 H 1245.53 0.446931 0.507177 0
M  V30 13184 H 1248.08 1.77484 1.03386 0
M  V30 13185 H 1246.31 1.48212 3.5717 0
M  V30 13186 H 1248 1.90073 3.58646 0
M  V30 13187 H 1248.77 4.1437 2.52037 0
M  V30 13188 H 1244.64 3.20699 3.31169 0
M  V30 13189 H 1248.19 6.54233 2.42125 0
M  V30 13190 H 1244.09 5.59709 3.21553 0
M  V30 13191 H 1244.85 7.6503 2.90984 0
M  V30 13192 N 1247.52 -1.0444 1.18026 0
M  V30 13193 C 1248.74 -1.81234 0.998089 0
M  V30 13194 C 1249.16 -1.83271 -0.453559 0
M  V30 13195 O 1248.52 -1.26545 -1.31502 0
M  V30 13196 C 1248.57 -3.27007 1.54106 0
M  V30 13197 O 1248.29 -3.25174 2.93587 0
M  V30 13198 C 1249.79 -4.20461 1.40455 0
M  V30 13199 H 1247.01 -0.57085 0.352663 0
M  V30 13200 H 1249.55 -1.31649 1.56489 0
M  V30 13201 H 1247.71 -3.73837 1.01611 0
M  V30 13202 H 1248.12 -4.16466 3.18836 0
M  V30 13203 H 1249.6 -5.20695 1.83249 0
M  V30 13204 H 1250.07 -4.37781 0.352713 0
M  V30 13205 H 1250.68 -3.79493 1.92004 0
M  V30 13206 N 1248.99 -0.981699 -1.2329 0
M  V30 13207 C 1249.94 -0.52269 -2.24803 0
M  V30 13208 C 1250.91 0.439116 -1.6019 0
M  V30 13209 O 1252.1 0.346372 -1.8763 0
M  V30 13210 C 1249.24 0.167477 -3.44693 0
M  V30 13211 C 1248.35 -0.834744 -4.23858 0
M  V30 13212 C 1247.48 -0.119249 -5.31066 0
M  V30 13213 C 1246.52 -1.1106 -6.0194 0
M  V30 13214 N 1245.66 -0.424167 -7.00818 0
M  V30 13215 H 1250.5 -1.39312 -2.63431 0
M  V30 13216 H 1248.04 -0.698061 -1.29482 0
M  V30 13217 H 1250 0.584442 -4.13086 0
M  V30 13218 H 1248.63 1.00177 -3.06862 0
M  V30 13219 H 1247.68 -1.37009 -3.5487 0
M  V30 13220 H 1248.99 -1.59012 -4.72776 0
M  V30 13221 H 1248.14 0.355015 -6.0566 0
M  V30 13222 H 1246.88 0.668714 -4.83094 0
M  V30 13223 H 1245.89 -1.5956 -5.26138 0
M  V30 13224 H 1247.11 -1.89924 -6.52001 0
M  V30 13225 H 1245.06 0.344564 -6.55094 0
M  V30 13226 H 1244.98 -1.11817 -7.47685 0
M  V30 13227 H 1246.24 0.0276655 -7.79495 0
M  V30 13228 N 1250.47 1.3842 -0.753509 0
M  V30 13229 C 1251.42 2.30457 -0.12574 0
M  V30 13230 C 1252.39 1.50173 0.709728 0
M  V30 13231 O 1253.57 1.78804 0.665872 0
M  V30 13232 C 1250.71 3.36593 0.761503 0
M  V30 13233 C 1249.83 4.31909 -0.0885848 0
M  V30 13234 C 1248.96 5.25116 0.801655 0
M  V30 13235 C 1248 6.12078 -0.0520719 0
M  V30 13236 N 1247.14 6.97583 0.795124 0
M  V30 13237 H 1251.98 2.83567 -0.916187 0
M  V30 13238 H 1249.52 1.39609 -0.463436 0
M  V30 13239 H 1251.47 3.96738 1.29054 0
M  V30 13240 H 1250.1 2.84894 1.51774 0
M  V30 13241 H 1249.16 3.73227 -0.735249 0
M  V30 13242 H 1250.47 4.93161 -0.747899 0
M  V30 13243 H 1249.62 5.90377 1.39786 0
M  V30 13244 H 1248.36 4.6423 1.4947 0
M  V30 13245 H 1247.37 5.45813 -0.660946 0
M  V30 13246 H 1248.59 6.75032 -0.742178 0
M  V30 13247 H 1246.54 6.39246 1.47312 0
M  V30 13248 H 1246.45 7.55754 0.192705 0
M  V30 13249 H 1247.72 7.67254 1.3763 0
M  V30 13250 N 1251.95 0.502579 1.49372 0
M  V30 13251 C 1253.2 -0.0414423 2.02758 0
M  V30 13252 C 1253.53 -1.36499 1.38136 0
M  V30 13253 O 1252.8 -1.87487 0.517593 0
M  V30 13254 C 1253.09 -0.192333 3.59586 0
M  V30 13255 C 1252.94 1.15445 4.34733 0
M  V30 13256 C 1254.26 -0.932218 4.30114 0
M  V30 13257 H 1251.38 -0.0135869 0.736875 0
M  V30 13258 H 1254.02 0.654296 1.78379 0
M  V30 13259 H 1252.17 -0.78491 3.80488 0
M  V30 13260 H 1253.84 1.78603 4.25322 0
M  V30 13261 H 1252.09 1.74333 3.97228 0
M  V30 13262 H 1252.76 1.00216 5.42827 0
M  V30 13263 H 1255.23 -0.429632 4.13876 0
M  V30 13264 H 1254.11 -1.00664 5.39591 0
M  V30 13265 H 1254.37 -1.9763 3.95468 0
M  V30 13266 N 1253.43 -1.55816 0.23648 0
M  V30 13267 C 1254.84 -1.84757 -0.268622 0
M  V30 13268 C 1255.19 -1.15815 -1.58371 0
M  V30 13269 O 1254.32 -0.432923 -2.12025 0
M  V30 13270 C 1254.91 -3.35177 -0.494167 0
M  V30 13271 C 1253.47 -3.64382 -0.943551 0
M  V30 13272 C 1252.62 -2.77296 -0.0149191 0
M  V30 13273 H 1255.57 -1.51908 0.459308 0
M  V30 13274 H 1255.59 -3.56192 -1.3382 0
M  V30 13275 H 1255.1 -3.85327 0.463138 0
M  V30 13276 H 1253.2 -3.19701 -1.91369 0
M  V30 13277 H 1253.31 -4.72244 -0.807626 0
M  V30 13278 H 1251.68 -2.49243 -0.524419 0
M  V30 13279 H 1252.46 -3.30249 0.937571 0
M  V30 13280 N 1254.91 0.036755 -1.57557 0
M  V30 13281 C 1255.84 1.06718 -2.0284 0
M  V30 13282 C 1256.85 1.32926 -0.939917 0
M  V30 13283 O 1258.04 1.30549 -1.21734 0
M  V30 13284 C 1255.14 2.41054 -2.38214 0
M  V30 13285 C 1254.31 2.3431 -3.69347 0
M  V30 13286 C 1253.37 3.51034 -3.91997 0
M  V30 13287 O 1252.4 3.30875 -4.63152 0
M  V30 13288 N 1253.6 4.72634 -3.37042 0
M  V30 13289 H 1256.37 0.681275 -2.91854 0
M  V30 13290 H 1253.93 0.224836 -1.60331 0
M  V30 13291 H 1255.92 3.17847 -2.5051 0
M  V30 13292 H 1254.49 2.71517 -1.5491 0
M  V30 13293 H 1253.71 1.42668 -3.67477 0
M  V30 13294 H 1255 2.2694 -4.55385 0
M  V30 13295 H 1254.39 4.91914 -2.79352 0
M  V30 13296 H 1252.95 5.46818 -3.5473 0
M  V30 13297 N 1256.39 1.54543 0.308881 0
M  V30 13298 C 1257.63 1.73706 1.04661 0
M  V30 13299 C 1257.96 0.517111 1.87189 0
M  V30 13300 O 1257.24 -0.485856 1.88334 0
M  V30 13301 C 1257.52 3.02141 1.95916 0
M  V30 13302 C 1257.38 4.34419 1.1662 0
M  V30 13303 C 1258.69 3.26401 2.95213 0
M  V30 13304 H 1255.81 0.63203 0.379087 0
M  V30 13305 H 1258.46 1.87253 0.321947 0
M  V30 13306 H 1256.61 2.90723 2.57706 0
M  V30 13307 H 1258.28 4.57743 0.571772 0
M  V30 13308 H 1256.52 4.3126 0.468747 0
M  V30 13309 H 1257.19 5.20535 1.83704 0
M  V30 13310 H 1259.67 3.37377 2.43549 0
M  V30 13311 H 1258.54 4.17597 3.56235 0
M  V30 13312 H 1258.8 2.44322 3.68455 0
M  V30 13313 N 1257.86 -0.571685 1.46866 0
M  V30 13314 C 1259.09 -1.36008 1.56578 0
M  V30 13315 C 1259.51 -1.86909 0.211326 0
M  V30 13316 O 1258.87 -1.62179 -0.810421 0
M  V30 13317 C 1258.92 -2.51598 2.58323 0
M  V30 13318 O 1258.02 -3.53383 2.1259 0
M  V30 13319 H 1257.36 -0.404593 0.526498 0
M  V30 13320 H 1259.89 -0.692357 1.92529 0
M  V30 13321 H 1259.9 -2.98366 2.78283 0
M  V30 13322 H 1258.58 -2.13904 3.56676 0
M  V30 13323 H 1257.16 -3.13019 2.02666 0
M  V30 13324 N 1259.34 -1.34755 -0.817236 0
M  V30 13325 C 1260.57 -1.30522 -1.60536 0
M  V30 13326 C 1260.98 0.119541 -1.88421 0
M  V30 13327 O 1260.34 1.06833 -1.47962 0
M  V30 13328 C 1260.39 -2.09939 -2.94292 0
M  V30 13329 O 1260.11 -3.46858 -2.67621 0
M  V30 13330 C 1261.61 -2.13168 -3.88683 0
M  V30 13331 H 1258.83 -0.448789 -0.498828 0
M  V30 13332 H 1261.38 -1.77453 -1.01639 0
M  V30 13333 H 1259.53 -1.66634 -3.49731 0
M  V30 13334 H 1259.95 -3.87979 -3.52949 0
M  V30 13335 H 1261.42 -2.73147 -4.79682 0
M  V30 13336 H 1261.9 -1.12758 -4.24479 0
M  V30 13337 H 1262.5 -2.56587 -3.39181 0
M  V30 13338 N 1260.82 1.03812 -1.18578 0
M  V30 13339 C 1262.23 1.58509 -0.986496 0
M  V30 13340 C 1262.58 1.90655 0.463136 0
M  V30 13341 O 1261.71 1.69847 1.34093 0
M  V30 13342 C 1262.3 2.88 -1.78441 0
M  V30 13343 C 1260.86 3.39304 -1.6294 0
M  V30 13344 C 1260.01 2.12857 -1.77727 0
M  V30 13345 H 1262.96 0.864528 -1.33085 0
M  V30 13346 H 1262.98 3.58502 -1.27501 0
M  V30 13347 H 1262.49 2.64572 -2.83942 0
M  V30 13348 H 1260.59 3.6774 -0.599864 0
M  V30 13349 H 1260.71 4.12959 -2.42902 0
M  V30 13350 H 1259.07 2.24285 -1.20699 0
M  V30 13351 H 1259.85 1.91882 -2.84669 0
M  V30 13352 N 1262.3 0.988223 1.22768 0
M  V30 13353 C 1263.53 0.679743 1.95415 0
M  V30 13354 C 1263.94 -0.754731 1.73059 0
M  V30 13355 O 1263.3 -1.50876 1.02678 0
M  V30 13356 C 1263.35 0.970344 3.48234 0
M  V30 13357 O 1263.07 2.34845 3.69837 0
M  V30 13358 C 1264.57 0.67891 4.3807 0
M  V30 13359 H 1261.79 0.251847 0.621944 0
M  V30 13360 H 1264.33 1.32173 1.56047 0
M  V30 13361 H 1262.49 0.374241 3.85588 0
M  V30 13362 H 1262.9 2.44412 4.64072 0
M  V30 13363 H 1264.38 0.932549 5.44066 0
M  V30 13364 H 1264.85 -0.387073 4.37491 0
M  V30 13365 H 1265.46 1.25585 4.06335 0
M  V30 13366 N 1263.78 -1.38018 0.760839 0
M  V30 13367 C 1264.71 -2.32995 0.153557 0
M  V30 13368 C 1265.69 -1.55234 -0.695448 0
M  V30 13369 O 1266.87 -1.8352 -0.635148 0
M  V30 13370 C 1264 -3.39437 -0.734811 0
M  V30 13371 C 1262.96 -4.27998 0.0120287 0
M  V30 13372 C 1262.28 -5.25359 -0.995067 0
M  V30 13373 C 1263.58 -5.08687 1.18468 0
M  V30 13374 H 1265.28 -2.8403 0.946956 0
M  V30 13375 H 1262.82 -1.36562 0.456816 0
M  V30 13376 H 1264.77 -4.0485 -1.16938 0
M  V30 13377 H 1263.5 -2.86901 -1.56061 0
M  V30 13378 H 1262.16 -3.64102 0.427254 0
M  V30 13379 H 1261.81 -4.69108 -1.81512 0
M  V30 13380 H 1261.51 -5.85469 -0.499969 0
M  V30 13381 H 1263.03 -5.93648 -1.4288 0
M  V30 13382 H 1264.44 -5.67299 0.8273 0
M  V30 13383 H 1262.84 -5.78068 1.61112 0
M  V30 13384 H 1263.91 -4.42 1.99409 0
M  V30 13385 N 1265.25 -0.510493 -1.49103 0
M  V30 13386 C 1266.5 0.030689 -2.02777 0
M  V30 13387 C 1266.83 1.35765 -1.38858 0
M  V30 13388 O 1266.11 1.87209 -0.527528 0
M  V30 13389 C 1266.39 0.173261 -3.59683 0
M  V30 13390 C 1266.24 -1.17749 -4.34114 0
M  V30 13391 C 1267.56 0.909395 -4.30602 0
M  V30 13392 H 1264.68 0.0096789 -0.736936 0
M  V30 13393 H 1267.32 -0.663746 -1.78029 0
M  V30 13394 H 1265.47 0.764721 -3.80899 0
M  V30 13395 H 1267.15 -1.80856 -4.24369 0
M  V30 13396 H 1265.39 -1.76438 -3.96298 0
M  V30 13397 H 1266.06 -1.03094 -5.42287 0
M  V30 13398 H 1268.54 0.407677 -4.14098 0
M  V30 13399 H 1267.41 0.978012 -5.40117 0
M  V30 13400 H 1267.67 1.9553 -3.96511 0
M  V30 13401 N 1266.73 1.55688 -0.24474 0
M  V30 13402 C 1267.64 2.24933 0.666519 0
M  V30 13403 C 1268.66 1.26471 1.19503 0
M  V30 13404 O 1269.83 1.59342 1.23176 0
M  V30 13405 C 1266.9 2.9336 1.84772 0
M  V30 13406 C 1265.96 4.07225 1.35889 0
M  V30 13407 C 1265.19 4.72381 2.48379 0
M  V30 13408 O 1265.42 4.36605 3.67059 0
M  V30 13409 O 1264.35 5.60933 2.18261 0
M  V30 13410 H 1268.18 3.03513 0.106507 0
M  V30 13411 H 1265.76 1.49394 -0.0133309 0
M  V30 13412 H 1267.64 3.36468 2.53708 0
M  V30 13413 H 1266.32 2.17721 2.39539 0
M  V30 13414 H 1265.22 3.68639 0.636881 0
M  V30 13415 H 1266.56 4.84676 0.857333 0
M  V30 13416 N 1268.21 -0.0283989 1.57574 0
M  V30 13417 C 1269.46 -0.720142 1.89583 0
M  V30 13418 C 1269.79 -1.7497 0.842562 0
M  V30 13419 O 1269.06 -1.93979 -0.142294 0
M  V30 13420 C 1269.35 -1.38909 3.32229 0
M  V30 13421 C 1269.2 -0.372998 4.48251 0
M  V30 13422 C 1270.52 -2.32289 3.73804 0
M  V30 13423 H 1267.64 -0.26033 0.689491 0
M  V30 13424 H 1270.28 0.0170607 1.89992 0
M  V30 13425 H 1268.43 -2.01744 3.32011 0
M  V30 13426 H 1270.1 0.253492 4.60603 0
M  V30 13427 H 1268.34 0.30765 4.32708 0
M  V30 13428 H 1269.02 -0.879549 5.44948 0
M  V30 13429 H 1271.49 -1.79497 3.75393 0
M  V30 13430 H 1270.37 -2.76075 4.74419 0
M  V30 13431 H 1270.63 -3.18992 3.06099 0
M  V30 13432 N 1269.69 -1.54705 -0.300681 0
M  V30 13433 C 1270.91 -1.78318 -1.05913 0
M  V30 13434 C 1271.34 -0.541177 -1.80147 0
M  V30 13435 O 1270.7 0.508291 -1.74029 0
M  V30 13436 C 1270.74 -2.99041 -2.01511 0
M  V30 13437 O 1269.85 -2.72188 -3.09818 0
M  V30 13438 H 1269.19 -0.590197 -0.304242 0
M  V30 13439 H 1271.72 -2.01789 -0.338006 0
M  V30 13440 H 1271.73 -3.2702 -2.43971 0
M  V30 13441 H 1270.4 -3.89098 -1.46886 0
M  V30 13442 H 1268.98 -2.55227 -2.71871 0
M  V30 13443 N 1271.17 0.563888 -1.47167 0
M  V30 13444 C 1272.58 0.889156 -1.32537 0
M  V30 13445 C 1272.78 1.99088 -0.310854 0
M  V30 13446 O 1271.84 2.50943 0.27998 0
M  V30 13447 C 1273.15 1.28871 -2.71685 0
M  V30 13448 C 1274.7 1.40051 -2.79919 0
M  V30 13449 C 1275.17 1.83364 -4.19692 0
M  V30 13450 N 1276.67 1.90526 -4.22201 0
M  V30 13451 C 1277.4 2.25355 -5.2726 0
M  V30 13452 N 1276.9 2.58844 -6.42629 0
M  V30 13453 N 1278.69 2.26071 -5.14634 0
M  V30 13454 H 1270.84 -0.163581 -2.11769 0
M  V30 13455 H 1273.1 -0.0105151 -0.947942 0
M  V30 13456 H 1272.81 0.553057 -3.47324 0
M  V30 13457 H 1272.68 2.24629 -3.03021 0
M  V30 13458 H 1275.07 2.12698 -2.04557 0
M  V30 13459 H 1275.15 0.424971 -2.52245 0
M  V30 13460 H 1274.8 1.11289 -4.95557 0
M  V30 13461 H 1274.73 2.81909 -4.44786 0
M  V30 13462 H 1277.22 1.67059 -3.38968 0
M  V30 13463 H 1277.53 2.84427 -7.18555 0
M  V30 13464 H 1275.87 2.56439 -6.4596 0
M  V30 13465 H 1279.07 1.99343 -4.23533 0
M  V30 13466 H 1279.24 2.52885 -5.96618 0
M  V30 13467 N 1272.64 1.35187 0.810078 0
M  V30 13468 C 1273.59 1.27848 1.94313 0
M  V30 13469 C 1274.59 0.174081 1.68503 0
M  V30 13470 O 1275.79 0.339848 1.76763 0
M  V30 13471 H 1272.17 0.397504 0.638353 0
M  V30 13472 H 1274.14 2.23579 1.97623 0
M  V30 13473 C 1272.89 1.06382 3.31026 0
M  V30 13474 H 1272.21 1.90601 3.51441 0
M  V30 13475 H 1273.65 1.05287 4.1072 0
M  V30 13476 C 1272.11 -0.232462 3.36097 0
M  V30 13477 O 1272.64 -1.22946 3.82423 0
M  V30 13478 N 1270.85 -0.270028 2.89343 0
M  V30 13479 H 1270.39 0.541891 2.51836 0
M  V30 13480 H 1270.35 -1.13708 2.93117 0
M  V30 13481 N 1274.12 -1.03182 1.19127 0
M  V30 13482 C 1275.05 -2.13301 0.94999 0
M  V30 13483 C 1276.03 -1.69707 -0.115577 0
M  V30 13484 O 1277.22 -1.94161 0.0388395 0
M  V30 13485 C 1274.35 -3.43902 0.484637 0
M  V30 13486 C 1273.3 -4.01164 1.4917 0
M  V30 13487 C 1272.63 -5.2735 0.883537 0
M  V30 13488 C 1273.93 -4.36311 2.87107 0
M  V30 13489 H 1275.62 -2.33743 1.87095 0
M  V30 13490 H 1273.17 -1.12332 0.900977 0
M  V30 13491 H 1275.12 -4.20308 0.30315 0
M  V30 13492 H 1273.85 -3.23173 -0.471909 0
M  V30 13493 H 1272.5 -3.26849 1.66028 0
M  V30 13494 H 1272.15 -5.02936 -0.0804712 0
M  V30 13495 H 1271.85 -5.66624 1.55599 0
M  V30 13496 H 1273.38 -6.06425 0.71278 0
M  V30 13497 H 1274.79 -5.03666 2.73848 0
M  V30 13498 H 1273.19 -4.86659 3.51117 0
M  V30 13499 H 1274.26 -3.45743 3.39985 0
M  V30 13500 N 1275.6 -0.99472 -1.22242 0
M  V30 13501 C 1276.85 -0.670275 -1.90661 0
M  V30 13502 C 1277.17 0.800369 -1.77818 0
M  V30 13503 O 1276.44 1.57381 -1.16653 0
M  V30 13504 H 1275.02 -0.244925 -0.705706 0
M  V30 13505 H 1277.68 -1.26162 -1.48557 0
M  V30 13506 H 1276.78 -0.934408 -2.97784 0
M  V30 13507 N 1277.08 1.37613 -0.768148 0
M  V30 13508 C 1278.03 2.30311 -0.150176 0
M  V30 13509 C 1279 1.50918 0.69376 0
M  V30 13510 O 1280.18 1.795 0.64687 0
M  V30 13511 C 1277.32 3.37382 0.72576 0
M  V30 13512 C 1276.43 4.31791 -0.13439 0
M  V30 13513 C 1275.57 5.25937 0.745915 0
M  V30 13514 C 1274.61 6.11988 -0.116988 0
M  V30 13515 N 1273.74 6.98387 0.721091 0
M  V30 13516 H 1278.58 2.82579 -0.946212 0
M  V30 13517 H 1276.12 1.3911 -0.478217 0
M  V30 13518 H 1278.08 3.98084 1.24839 0
M  V30 13519 H 1276.71 2.86488 1.48743 0
M  V30 13520 H 1275.76 3.72426 -0.774793 0
M  V30 13521 H 1277.07 4.9234 -0.800163 0
M  V30 13522 H 1276.23 5.91826 1.33516 0
M  V30 13523 H 1274.97 4.6579 1.44538 0
M  V30 13524 H 1273.97 5.45081 -0.7188 0
M  V30 13525 H 1275.2 6.74207 -0.813732 0
M  V30 13526 H 1273.14 6.40772 1.40524 0
M  V30 13527 H 1273.06 7.55916 0.112536 0
M  V30 13528 H 1274.33 7.6867 1.29485 0
M  V30 13529 N 1278.56 0.518393 1.4883 0
M  V30 13530 C 1279.8 -0.0199348 2.0279 0
M  V30 13531 C 1280.14 -1.35026 1.39576 0
M  V30 13532 O 1279.41 -1.86927 0.537449 0
M  V30 13533 C 1279.69 -0.154184 3.5977 0
M  V30 13534 C 1279.55 1.2005 4.33484 0
M  V30 13535 C 1280.87 -0.886547 4.31078 0
M  V30 13536 H 1277.98 -0.00577061 0.736977 0
M  V30 13537 H 1280.63 0.673178 1.77675 0
M  V30 13538 H 1278.78 -0.74451 3.81299 0
M  V30 13539 H 1280.45 1.83104 4.23404 0
M  V30 13540 H 1278.69 1.78537 3.95357 0
M  V30 13541 H 1279.36 1.05968 5.41733 0
M  V30 13542 H 1281.84 -0.385711 4.14308 0
M  V30 13543 H 1280.71 -0.949355 5.40628 0
M  V30 13544 H 1280.98 -1.93424 3.97542 0
M  V30 13545 N 1280.03 -1.55556 0.252993 0
M  V30 13546 C 1281.28 -1.98697 -0.369319 0
M  V30 13547 C 1281.6 -1.14256 -1.58021 0
M  V30 13548 O 1280.87 -0.226779 -1.94583 0
M  V30 13549 H 1279.45 -0.733869 -0.139444 0
M  V30 13550 H 1282.12 -1.91673 0.353197 0
M  V30 13551 H 1281.21 -3.04728 -0.674312 0
M  V30 13552 N 1281.51 0.0200419 -1.57587 0
M  V30 13553 C 1282.74 0.724241 -1.94344 0
M  V30 13554 C 1283.16 1.67612 -0.853688 0
M  V30 13555 O 1282.52 1.80303 0.189873 0
M  V30 13556 C 1282.57 1.44967 -3.30177 0
M  V30 13557 O 1281.67 2.56326 -3.23064 0
M  V30 13558 H 1281.01 0.194142 -0.634984 0
M  V30 13559 H 1283.54 -0.0271756 -2.04582 0
M  V30 13560 H 1283.55 1.81758 -3.65278 0
M  V30 13561 H 1282.23 0.75161 -4.09052 0
M  V30 13562 H 1280.81 2.22011 -2.99609 0
M  V30 13563 N 1282.99 1.54862 0.292472 0
M  V30 13564 C 1283.94 1.86403 1.36098 0
M  V30 13565 C 1284.91 0.713694 1.49985 0
M  V30 13566 O 1286.09 0.963134 1.64707 0
M  V30 13567 C 1283.23 2.1244 2.71962 0
M  V30 13568 C 1282.35 3.40038 2.66454 0
M  V30 13569 C 1281.48 3.55875 3.94368 0
M  V30 13570 C 1280.52 4.77235 3.83293 0
M  V30 13571 N 1279.66 4.89832 5.03 0
M  V30 13572 H 1284.5 2.77546 1.085 0
M  V30 13573 H 1282.03 1.37427 0.524607 0
M  V30 13574 H 1283.99 2.25533 3.50985 0
M  V30 13575 H 1282.62 1.24554 2.97802 0
M  V30 13576 H 1281.67 3.35521 1.79248 0
M  V30 13577 H 1282.99 4.29188 2.54163 0
M  V30 13578 H 1282.14 3.68679 4.8183 0
M  V30 13579 H 1280.88 2.64874 4.09503 0
M  V30 13580 H 1279.88 4.64455 2.94214 0
M  V30 13581 H 1281.11 5.69651 3.69695 0
M  V30 13582 H 1279.05 4.01756 5.18582 0
M  V30 13583 H 1278.97 5.72996 4.93165 0
M  V30 13584 H 1280.24 5.07001 5.92089 0
M  V30 13585 N 1284.47 -0.556076 1.47464 0
M  V30 13586 C 1285.71 -1.32397 1.55726 0
M  V30 13587 C 1286.07 -1.90793 0.214956 0
M  V30 13588 O 1287.27 -2.68246 0.172429 0
M  V30 13589 C 1285.54 -2.40358 2.64505 0
M  V30 13590 S 1287.1 -3.27219 2.92358 0
M  V30 13591 H 1283.92 -0.450713 0.549889 0
M  V30 13592 H 1286.52 -0.636471 1.84849 0
M  V30 13593 H 1285.23 -1.95893 3.6063 0
M  V30 13594 H 1284.76 -3.13847 2.372 0
M  V30 13595 H 1286.77 -4.39854 2.29659 0
M  V30 13596 N 1285.95 -1.35615 -0.802897 0
M  V30 13597 C 1287.19 -1.30462 -1.5735 0
M  V30 13598 C 1287.55 0.118488 -1.91634 0
M  V30 13599 O 1288.75 0.294421 -2.67183 0
M  V30 13600 C 1287.02 -2.18916 -2.82508 0
M  V30 13601 S 1288.58 -2.31315 -3.72879 0
M  V30 13602 H 1285.4 -0.463588 -0.53908 0
M  V30 13603 H 1288 -1.71045 -0.946782 0
M  V30 13604 H 1286.71 -3.21285 -2.5535 0
M  V30 13605 H 1286.24 -1.79304 -3.50162 0
M  V30 13606 H 1288.25 -1.50069 -4.72963 0
M  V30 13607 N 1287.43 1.02549 -1.19673 0
M  V30 13608 C 1288.37 2.109 -0.937536 0
M  V30 13609 C 1289.34 1.65599 0.128923 0
M  V30 13610 O 1290.53 1.90795 -0.0139366 0
M  V30 13611 C 1287.67 3.4166 -0.48602 0
M  V30 13612 C 1286.78 4.0049 -1.61963 0
M  V30 13613 C 1285.92 5.19273 -1.11931 0
M  V30 13614 C 1284.95 5.70166 -2.22659 0
M  V30 13615 N 1284.09 6.80221 -1.73909 0
M  V30 13616 H 1288.93 2.32408 -1.86523 0
M  V30 13617 H 1286.47 1.13982 -0.929869 0
M  V30 13618 H 1288.43 4.16693 -0.205614 0
M  V30 13619 H 1287.06 3.20253 0.404678 0
M  V30 13620 H 1286.11 3.22638 -2.01516 0
M  V30 13621 H 1287.42 4.34273 -2.45374 0
M  V30 13622 H 1286.57 6.01478 -0.794336 0
M  V30 13623 H 1285.31 4.87033 -0.254972 0
M  V30 13624 H 1284.32 4.86572 -2.55983 0
M  V30 13625 H 1285.54 6.04444 -3.09554 0
M  V30 13626 H 1283.49 6.49826 -0.897889 0
M  V30 13627 H 1283.41 7.13149 -2.50907 0
M  V30 13628 H 1284.67 7.66011 -1.44386 0
M  V30 13629 N 1288.9 1.00119 1.21713 0
M  V30 13630 C 1289.85 0.529464 2.21767 0
M  V30 13631 C 1290.84 -0.406858 1.55671 0
M  V30 13632 O 1292.03 -0.232329 1.75469 0
M  V30 13633 C 1289.16 -0.146336 3.42988 0
M  V30 13634 C 1288.24 0.81078 4.16278 0
M  V30 13635 N 1288.64 1.96204 4.66195 0
M  V30 13636 C 1286.93 0.628371 4.41551 0
M  V30 13637 C 1287.63 2.56346 5.2217 0
M  V30 13638 N 1286.61 1.8454 5.11318 0
M  V30 13639 H 1290.41 1.40738 2.58012 0
M  V30 13640 H 1287.93 0.864518 1.37477 0
M  V30 13641 H 1289.92 -0.501726 4.1387 0
M  V30 13642 H 1288.58 -1.02029 3.08254 0
M  V30 13643 H 1289.59 2.34255 4.61893 0
M  V30 13644 H 1286.27 -0.198819 4.17026 0
M  V30 13645 H 1287.66 3.53688 5.71274 0
M  V30 13646 N 1290.38 -1.37203 0.775435 0
M  V30 13647 C 1291.79 -1.82224 0.406372 0
M  V30 13648 C 1292.14 -1.64587 -1.06796 0
M  V30 13649 O 1291.27 -1.15903 -1.82744 0
M  V30 13650 C 1291.86 -3.30824 0.730819 0
M  V30 13651 C 1290.42 -3.74108 0.414766 0
M  V30 13652 C 1289.57 -2.59679 0.972747 0
M  V30 13653 H 1292.52 -1.25623 0.969775 0
M  V30 13654 H 1292.54 -3.80496 0.0168066 0
M  V30 13655 H 1292.05 -3.43628 1.80392 0
M  V30 13656 H 1290.15 -3.66871 -0.650866 0
M  V30 13657 H 1290.27 -4.70074 0.925595 0
M  V30 13658 H 1288.63 -2.51591 0.396772 0
M  V30 13659 H 1289.41 -2.75274 2.05132 0
M  V30 13660 N 1291.86 -0.526279 -1.48553 0
M  V30 13661 C 1292.77 0.24244 -2.33344 0
M  V30 13662 C 1293.79 0.942658 -1.46253 0
M  V30 13663 O 1294.96 0.91844 -1.79239 0
M  V30 13664 C 1292.03 1.27801 -3.22285 0
M  V30 13665 C 1291.09 0.588543 -4.25247 0
M  V30 13666 C 1290.32 1.57478 -5.09938 0
M  V30 13667 O 1290.54 2.80707 -4.96548 0
M  V30 13668 O 1289.48 1.11621 -5.9146 0
M  V30 13669 H 1293.3 -0.452262 -3.00314 0
M  V30 13670 H 1290.89 -0.287249 -1.46613 0
M  V30 13671 H 1292.77 1.87656 -3.7731 0
M  V30 13672 H 1291.45 1.95519 -2.57981 0
M  V30 13673 H 1290.35 -0.0504022 -3.74066 0
M  V30 13674 H 1291.69 -0.046627 -4.92178 0
M  V30 13675 N 1293.34 1.5542 -0.261239 0
M  V30 13676 C 1294.3 2.20683 0.619011 0
M  V30 13677 C 1295.3 1.18042 1.09192 0
M  V30 13678 O 1296.49 1.43035 0.99432 0
M  V30 13679 C 1293.62 2.86179 1.85242 0
M  V30 13680 H 1294.82 2.99859 0.0493924 0
M  V30 13681 H 1292.37 1.56296 -0.0117687 0
M  V30 13682 H 1293.1 2.10978 2.4629 0
M  V30 13683 H 1292.89 3.61381 1.52138 0
M  V30 13684 H 1294.38 3.36081 2.47869 0
M  V30 13685 N 1294.82 -0.0116844 1.57596 0
M  V30 13686 C 1295.76 -1.00684 2.07681 0
M  V30 13687 C 1296.73 -1.34858 0.969666 0
M  V30 13688 O 1297.92 -1.44896 1.24136 0
M  V30 13689 C 1295.06 -2.29729 2.57524 0
M  V30 13690 C 1294.17 -2.0156 3.82096 0
M  V30 13691 C 1293.31 -3.24601 4.20485 0
M  V30 13692 C 1292.34 -2.92066 5.37925 0
M  V30 13693 N 1291.48 -4.0761 5.71663 0
M  V30 13694 H 1296.32 -0.572787 2.92443 0
M  V30 13695 H 1293.86 -0.271184 1.44579 0
M  V30 13696 H 1295.82 -3.05152 2.84496 0
M  V30 13697 H 1294.45 -2.70824 1.75653 0
M  V30 13698 H 1293.5 -1.16556 3.62103 0
M  V30 13699 H 1294.81 -1.73572 4.67626 0
M  V30 13700 H 1293.96 -4.08379 4.48677 0
M  V30 13701 H 1292.7 -3.55718 3.3364 0
M  V30 13702 H 1291.71 -2.06693 5.09468 0
M  V30 13703 H 1292.93 -2.62209 6.26437 0
M  V30 13704 H 1290.88 -4.38645 4.87777 0
M  V30 13705 H 1290.8 -3.83105 6.51741 0
M  V30 13706 H 1292.06 -4.92211 6.04441 0
M  V30 13707 N 1296.29 -1.55015 -0.284256 0
M  V30 13708 C 1297.71 -1.46603 -0.630845 0
M  V30 13709 C 1297.91 -0.67091 -1.90003 0
M  V30 13710 O 1296.97 -0.185266 -2.51819 0
M  V30 13711 C 1298.28 -2.9072 -0.768268 0
M  V30 13712 C 1299.83 -3.00866 -0.863061 0
M  V30 13713 C 1300.3 -4.46214 -1.03235 0
M  V30 13714 N 1301.79 -4.49994 -1.09815 0
M  V30 13715 C 1302.53 -5.5966 -1.24773 0
M  V30 13716 N 1302.02 -6.79215 -1.36523 0
M  V30 13717 N 1303.82 -5.4738 -1.27795 0
M  V30 13718 H 1295.97 -2.05171 0.549409 0
M  V30 13719 H 1298.23 -0.929915 0.184288 0
M  V30 13720 H 1297.94 -3.51575 0.0936899 0
M  V30 13721 H 1297.81 -3.39096 -1.65209 0
M  V30 13722 H 1300.2 -2.40114 -1.71549 0
M  V30 13723 H 1300.28 -2.5576 0.0451267 0
M  V30 13724 H 1299.92 -5.07564 -0.18462 0
M  V30 13725 H 1299.85 -4.88965 -1.95502 0
M  V30 13726 H 1302.34 -3.63869 -1.0202 0
M  V30 13727 H 1302.66 -7.58547 -1.47739 0
M  V30 13728 H 1301 -6.82048 -1.33548 0
M  V30 13729 H 1304.19 -4.52921 -1.18238 0
M  V30 13730 H 1304.37 -6.32892 -1.39109 0
M  V30 13731 N 1297.77 0.548248 -1.47757 0
M  V30 13732 C 1298.7 1.6705 -1.55466 0
M  V30 13733 C 1299.68 1.57444 -0.406208 0
M  V30 13734 O 1300.87 1.78176 -0.615268 0
M  V30 13735 C 1297.99 3.0535 -1.46558 0
M  V30 13736 C 1297.04 3.33372 -2.66017 0
M  V30 13737 S 1297.87 3.21643 -4.28143 0
M  V30 13738 C 1299.03 4.62421 -4.21803 0
M  V30 13739 H 1299.26 1.60258 -2.50409 0
M  V30 13740 H 1296.79 0.72978 -1.36065 0
M  V30 13741 H 1298.75 3.85118 -1.42106 0
M  V30 13742 H 1297.41 3.09599 -0.529838 0
M  V30 13743 H 1296.61 4.34218 -2.55873 0
M  V30 13744 H 1296.21 2.6124 -2.67638 0
M  V30 13745 H 1298.5 5.53561 -3.9061 0
M  V30 13746 H 1299.44 4.77621 -5.22766 0
M  V30 13747 H 1299.85 4.40887 -3.52532 0
M  V30 13748 N 1299.25 1.36039 0.795694 0
M  V30 13749 C 1300.66 1.2679 1.37044 0
M  V30 13750 C 1301.01 -0.0950192 1.9597 0
M  V30 13751 O 1300.14 -0.996311 1.921 0
M  V30 13752 C 1300.73 2.29585 2.49151 0
M  V30 13753 C 1299.29 2.24044 3.02458 0
M  V30 13754 C 1298.44 2.14703 1.75493 0
M  V30 13755 H 1301.39 1.47009 0.597843 0
M  V30 13756 H 1301.41 1.92864 3.27999 0
M  V30 13757 H 1300.92 3.28769 2.06234 0
M  V30 13758 H 1299.02 1.28307 3.49812 0
M  V30 13759 H 1299.14 3.1647 3.597 0
M  V30 13760 H 1297.5 1.60856 1.97478 0
M  V30 13761 H 1298.28 3.15765 1.34713 0
M  V30 13762 N 1300.73 -1.01913 1.20215 0
M  V30 13763 C 1301.97 -1.77015 1.02202 0
M  V30 13764 C 1302.33 -1.86927 -0.43845 0
M  V30 13765 O 1303.53 -2.58451 -0.73869 0
M  V30 13766 C 1301.8 -3.15244 1.68393 0
M  V30 13767 S 1303.36 -4.06414 1.65449 0
M  V30 13768 H 1300.18 -0.609242 0.366531 0
M  V30 13769 H 1302.78 -1.22044 1.52727 0
M  V30 13770 H 1301.49 -3.05653 2.73869 0
M  V30 13771 H 1301.02 -3.7529 1.17988 0
M  V30 13772 H 1303.03 -4.91441 0.685571 0
M  V30 13773 N 1302.21 -1.00763 -1.2118 0
M  V30 13774 C 1303.17 -0.575183 -2.21865 0
M  V30 13775 C 1304.17 0.349871 -1.56948 0
M  V30 13776 O 1305.36 0.139795 -1.73638 0
M  V30 13777 C 1302.49 0.161308 -3.40518 0
M  V30 13778 H 1303.68 -1.46578 -2.61639 0
M  V30 13779 H 1301.24 -0.79643 -1.34487 0
M  V30 13780 H 1301.97 1.06723 -3.06236 0
M  V30 13781 H 1301.76 -0.503101 -3.88859 0
M  V30 13782 H 1303.25 0.451527 -4.15152 0
M  V30 13783 N 1303.68 1.3679 -0.7827 0
M  V30 13784 C 1304.59 2.33928 -0.17747 0
M  V30 13785 C 1305.61 1.60716 0.666802 0
M  V30 13786 O 1306.79 1.92742 0.584162 0
M  V30 13787 C 1303.85 3.39907 0.68294 0
M  V30 13788 C 1302.91 4.28926 -0.179053 0
M  V30 13789 C 1302.15 5.29844 0.640386 0
M  V30 13790 O 1302.37 5.38639 1.87681 0
M  V30 13791 O 1301.3 6.01884 0.0438164 0
M  V30 13792 H 1305.13 2.87439 -0.980441 0
M  V30 13793 H 1302.71 1.39142 -0.54404 0
M  V30 13794 H 1304.6 4.04722 1.17379 0
M  V30 13795 H 1303.27 2.88706 1.46391 0
M  V30 13796 H 1302.18 3.67174 -0.716512 0
M  V30 13797 H 1303.51 4.83461 -0.923377 0
M  V30 13798 N 1305.16 0.53415 1.48272 0
M  V30 13799 C 1306.44 -0.0630181 1.95498 0
M  V30 13800 C 1306.82 -1.50877 1.47646 0
M  V30 13801 O 1306.17 -2.17358 0.704829 0
M  V30 13802 C 1306.38 0.0585475 3.48951 0
M  V30 13803 C 1307.73 -0.0985978 4.24486 0
M  V30 13804 O 1308.75 -0.0150438 3.56197 0
M  V30 13805 O 1307.61 -0.274356 5.45811 0
M  V30 13806 H 1304.7 -0.0769841 0.823409 0
M  V30 13807 H 1307.25 0.599043 1.58775 0
M  V30 13808 H 1306.02 1.06549 3.76514 0
M  V30 13809 H 1305.64 -0.642175 3.9238 0
M  V30 13810 N 1306.64 -1.55279 0.269478 0
M  V30 13811 C 1307.87 -2.03581 -0.351907 0
M  V30 13812 C 1308.28 -1.14747 -1.50432 0
M  V30 13813 O 1307.62 -0.158939 -1.83011 0
M  V30 13814 C 1307.68 -3.48041 -0.900444 0
M  V30 13815 C 1307.35 -4.56835 0.122612 0
M  V30 13816 C 1308.34 -5.11329 0.940149 0
M  V30 13817 C 1306.03 -5.01651 0.255224 0
M  V30 13818 C 1308.02 -6.09151 1.87654 0
M  V30 13819 C 1305.71 -5.993 1.19509 0
M  V30 13820 C 1306.71 -6.52931 2.00426 0
M  V30 13821 O 1306.4 -7.48671 2.92825 0
M  V30 13822 H 1306.13 -0.670627 -0.0850629 0
M  V30 13823 H 1308.68 -2.01514 0.39766 0
M  V30 13824 H 1306.91 -3.47329 -1.69998 0
M  V30 13825 H 1308.6 -3.79713 -1.43431 0
M  V30 13826 H 1309.37 -4.77522 0.848402 0
M  V30 13827 H 1305.25 -4.59556 -0.364579 0
M  V30 13828 H 1308.79 -6.50937 2.50853 0
M  V30 13829 H 1304.69 -6.32526 1.28768 0
M  V30 13830 H 1305.46 -7.66368 2.87442 0
M  V30 13831 N 1308.12 0.00332656 -1.576 0
M  V30 13832 C 1309.05 0.994803 -2.11248 0
M  V30 13833 C 1310.03 1.36061 -1.02085 0
M  V30 13834 O 1311.21 1.44494 -1.2975 0
M  V30 13835 C 1308.34 2.28772 -2.61306 0
M  V30 13836 C 1307.3 2.06362 -3.74965 0
M  V30 13837 C 1306.62 3.41638 -4.11324 0
M  V30 13838 C 1307.92 1.4289 -5.02374 0
M  V30 13839 H 1309.62 0.548119 -2.9434 0
M  V30 13840 H 1307.16 0.262208 -1.41593 0
M  V30 13841 H 1309.12 2.98485 -2.97464 0
M  V30 13842 H 1307.84 2.75547 -1.75332 0
M  V30 13843 H 1306.5 1.39076 -3.39195 0
M  V30 13844 H 1306.15 3.8611 -3.22379 0
M  V30 13845 H 1305.85 3.2746 -4.87897 0
M  V30 13846 H 1307.37 4.12671 -4.50039 0
M  V30 13847 H 1308.79 2.02555 -5.36325 0
M  V30 13848 H 1307.18 1.3921 -5.8373 0
M  V30 13849 H 1308.25 0.397708 -4.83266 0
M  V30 13850 N 1309.6 1.55164 0.276031 0
M  V30 13851 C 1310.82 1.7998 1.03063 0
M  V30 13852 C 1311.25 0.569769 1.79263 0
M  V30 13853 O 1310.6 -0.48054 1.74816 0
M  V30 13854 C 1310.65 3.02209 1.96728 0
M  V30 13855 O 1309.76 2.77083 3.05449 0
M  V30 13856 H 1309.1 0.594963 0.294814 0
M  V30 13857 H 1311.63 2.02301 0.305861 0
M  V30 13858 H 1311.64 3.3086 2.38738 0
M  V30 13859 H 1310.31 3.91386 1.40677 0
M  V30 13860 H 1308.89 2.5952 2.67776 0
M  V30 13861 N 1311.07 -0.540404 1.48045 0
M  V30 13862 C 1312.32 -1.2987 1.55762 0
M  V30 13863 C 1312.65 -1.92877 0.226307 0
M  V30 13864 O 1311.93 -1.7875 -0.766727 0
M  V30 13865 C 1312.21 -2.39602 2.68817 0
M  V30 13866 C 1312.06 -1.81354 4.1162 0
M  V30 13867 C 1313.38 -3.41434 2.77688 0
M  V30 13868 H 1310.5 -0.47083 0.566999 0
M  V30 13869 H 1313.14 -0.603081 1.80175 0
M  V30 13870 H 1311.29 -2.98936 2.48132 0
M  V30 13871 H 1312.97 -1.26151 4.43716 0
M  V30 13872 H 1311.21 -1.1194 4.19108 0
M  V30 13873 H 1311.88 -2.60758 4.86528 0
M  V30 13874 H 1314.36 -2.92042 2.96396 0
M  V30 13875 H 1313.23 -4.15621 3.5854 0
M  V30 13876 H 1313.49 -4.01336 1.85422 0
M  V30 13877 N 1312.55 -1.36459 -0.788468 0
M  V30 13878 C 1313.8 -1.30935 -1.54867 0
M  V30 13879 C 1314.13 0.110916 -1.93883 0
M  V30 13880 O 1313.41 1.06452 -1.62783 0
M  V30 13881 C 1313.69 -2.23294 -2.8251 0
M  V30 13882 C 1313.54 -3.74022 -2.49856 0
M  V30 13883 C 1314.86 -2.14407 -3.84341 0
M  V30 13884 H 1311.98 -0.476958 -0.561854 0
M  V30 13885 H 1314.62 -1.67018 -0.905805 0
M  V30 13886 H 1312.77 -1.92652 -3.37369 0
M  V30 13887 H 1314.44 -4.15187 -2.01041 0
M  V30 13888 H 1312.69 -3.93411 -1.82785 0
M  V30 13889 H 1313.36 -4.34057 -3.41026 0
M  V30 13890 H 1315.83 -2.41381 -3.38932 0
M  V30 13891 H 1314.71 -2.81199 -4.71401 0
M  V30 13892 H 1314.97 -1.13166 -4.27371 0
M  V30 13893 N 1314.03 1.01274 -1.20754 0
M  V30 13894 C 1314.96 2.11763 -0.983805 0
M  V30 13895 C 1315.94 1.69869 0.0885635 0
M  V30 13896 O 1317.13 1.94075 -0.0697239 0
M  V30 13897 C 1314.26 3.43087 -0.539287 0
M  V30 13898 C 1313.21 3.9874 -1.55534 0
M  V30 13899 C 1312.54 5.25877 -0.967322 0
M  V30 13900 C 1313.84 4.31688 -2.94012 0
M  V30 13901 H 1315.53 2.30737 -1.90789 0
M  V30 13902 H 1313.08 1.10884 -0.918734 0
M  V30 13903 H 1315.03 4.19773 -0.369979 0
M  V30 13904 H 1313.75 3.23883 0.420435 0
M  V30 13905 H 1312.41 3.24166 -1.71207 0
M  V30 13906 H 1312.06 5.03 0.000448307 0
M  V30 13907 H 1311.76 5.64077 -1.64594 0
M  V30 13908 H 1313.28 6.05215 -0.809167 0
M  V30 13909 H 1314.7 4.99246 -2.81827 0
M  V30 13910 H 1313.1 4.81011 -3.58815 0
M  V30 13911 H 1314.17 3.4029 -3.45442 0
M  V30 13912 N 1315.51 1.01404 1.20644 0
M  V30 13913 C 1316.46 0.575388 2.25371 0
M  V30 13914 C 1317.45 -0.384598 1.64976 0
M  V30 13915 O 1318.66 -0.2548 1.78187 0
M  V30 13916 H 1315.03 0.167752 0.733051 0
M  V30 13917 H 1317 1.46964 2.597 0
M  V30 13918 C 1315.75 -0.0731257 3.47623 0
M  V30 13919 H 1315.08 0.656551 3.94372 0
M  V30 13920 H 1316.52 -0.343203 4.22609 0
M  V30 13921 C 1314.97 -1.31515 3.1017 0
M  V30 13922 O 1315.5 -2.40869 3.21473 0
M  V30 13923 N 1313.71 -1.19829 2.64744 0
M  V30 13924 H 1313.26 -0.308463 2.55746 0
M  V30 13925 H 1313.22 -2.0303 2.40054 0
M  V30 13926 N 1316.99 -1.36373 0.789944 0
M  V30 13927 C 1317.92 -2.2873 0.146642 0
M  V30 13928 C 1318.93 -1.49503 -0.644419 0
M  V30 13929 O 1320.12 -1.71939 -0.479515 0
M  V30 13930 C 1317.22 -3.28945 -0.815369 0
M  V30 13931 C 1316.39 -4.37337 -0.0742515 0
M  V30 13932 C 1315.45 -5.17511 -0.952284 0
M  V30 13933 O 1314.48 -5.67726 -0.409336 0
M  V30 13934 N 1315.68 -5.34001 -2.27648 0
M  V30 13935 H 1318.45 -2.84578 0.939978 0
M  V30 13936 H 1316.01 -1.48545 0.643898 0
M  V30 13937 H 1318 -3.79469 -1.40661 0
M  V30 13938 H 1316.57 -2.73734 -1.50958 0
M  V30 13939 H 1315.79 -3.8797 0.698068 0
M  V30 13940 H 1317.08 -5.06919 0.437148 0
M  V30 13941 H 1316.48 -4.94819 -2.74173 0
M  V30 13942 H 1315.03 -5.87766 -2.81735 0
M  V30 13943 N 1318.47 -0.542005 -1.47987 0
M  V30 13944 C 1319.4 0.202703 -2.32618 0
M  V30 13945 C 1320.38 0.923521 -1.42846 0
M  V30 13946 O 1321.56 0.906957 -1.7172 0
M  V30 13947 C 1318.69 1.24267 -3.24307 0
M  V30 13948 C 1317.65 0.639257 -4.23199 0
M  V30 13949 C 1316.97 1.78275 -5.04105 0
M  V30 13950 C 1318.27 -0.396982 -5.20789 0
M  V30 13951 H 1319.97 -0.503817 -2.95131 0
M  V30 13952 H 1317.51 -0.243736 -1.41922 0
M  V30 13953 H 1319.46 1.7717 -3.82347 0
M  V30 13954 H 1318.19 1.97893 -2.59819 0
M  V30 13955 H 1316.85 0.131655 -3.66364 0
M  V30 13956 H 1316.5 2.50768 -4.36032 0
M  V30 13957 H 1316.2 1.38487 -5.71047 0
M  V30 13958 H 1317.72 2.31533 -5.65 0
M  V30 13959 H 1319.13 0.0454057 -5.73282 0
M  V30 13960 H 1317.53 -0.712911 -5.9585 0
M  V30 13961 H 1318.6 -1.29843 -4.67193 0
M  V30 13962 N 1319.94 1.55134 -0.277709 0
M  V30 13963 C 1321.18 2.01561 0.339489 0
M  V30 13964 C 1321.55 1.16185 1.52856 0
M  V30 13965 O 1322.75 1.52204 2.21556 0
M  V30 13966 C 1321.02 3.50285 0.709567 0
M  V30 13967 S 1322.58 4.18697 1.31293 0
M  V30 13968 H 1319.4 0.703137 0.105452 0
M  V30 13969 H 1322 1.91361 -0.400148 0
M  V30 13970 H 1320.7 4.10069 -0.164675 0
M  V30 13971 H 1320.23 3.64475 1.4806 0
M  V30 13972 H 1322.25 4.22539 2.60145 0
M  V30 13973 N 1321.42 0.00503138 1.57599 0
M  V30 13974 C 1322.67 -0.679766 1.91068 0
M  V30 13975 C 1323 -1.73144 0.879486 0
M  V30 13976 O 1322.28 -1.94237 -0.101116 0
M  V30 13977 C 1322.56 -1.3183 3.35101 0
M  V30 13978 C 1322.41 -0.277833 4.48941 0
M  V30 13979 C 1323.73 -2.24308 3.78647 0
M  V30 13980 H 1320.85 -0.245646 0.694857 0
M  V30 13981 H 1323.49 0.057357 1.89913 0
M  V30 13982 H 1321.64 -1.94657 3.36216 0
M  V30 13983 H 1323.31 0.351136 4.59962 0
M  V30 13984 H 1321.56 0.399365 4.31958 0
M  V30 13985 H 1322.23 -0.763759 5.46691 0
M  V30 13986 H 1324.7 -1.71494 3.79116 0
M  V30 13987 H 1323.58 -2.6595 4.80169 0
M  V30 13988 H 1323.84 -3.12427 3.12797 0
M  V30 13989 N 1322.9 -1.55308 -0.267798 0
M  V30 13990 C 1323.83 -1.91555 -1.33525 0
M  V30 13991 C 1324.81 -0.778001 -1.51265 0
M  V30 13992 O 1326 -1.03657 -1.64222 0
M  V30 13993 C 1323.13 -2.19201 -2.69385 0
M  V30 13994 C 1322.08 -3.3501 -2.66369 0
M  V30 13995 C 1321.41 -3.48148 -4.05829 0
M  V30 13996 C 1322.71 -4.71265 -2.25182 0
M  V30 13997 H 1324.4 -2.80965 -1.03437 0
M  V30 13998 H 1321.95 -1.35183 -0.496141 0
M  V30 13999 H 1323.9 -2.43146 -3.44177 0
M  V30 14000 H 1322.62 -1.26596 -3.01067 0
M  V30 14001 H 1321.28 -3.11041 -1.94034 0
M  V30 14002 H 1320.93 -2.53 -4.34741 0
M  V30 14003 H 1320.63 -4.26014 -4.04704 0
M  V30 14004 H 1322.15 -3.74391 -4.82352 0
M  V30 14005 H 1323.57 -4.94719 -2.89699 0
M  V30 14006 H 1321.96 -5.52084 -2.3521 0
M  V30 14007 H 1323.03 -4.69735 -1.20319 0
M  V30 14008 N 1324.38 0.532545 -1.4833 0
M  V30 14009 C 1325.33 1.6335 -1.59062 0
M  V30 14010 C 1326.31 1.5454 -0.447905 0
M  V30 14011 O 1327.5 1.62604 -0.699205 0
M  V30 14012 C 1324.63 3.02077 -1.63109 0
M  V30 14013 C 1323.72 3.16 -2.82851 0
M  V30 14014 N 1324.11 2.99905 -4.07297 0
M  V30 14015 C 1322.41 3.47049 -2.8013 0
M  V30 14016 C 1323.11 3.17176 -4.87621 0
M  V30 14017 N 1322.08 3.44634 -4.20391 0
M  V30 14018 H 1325.89 1.49512 -2.53028 0
M  V30 14019 H 1323.4 0.73794 -1.44666 0
M  V30 14020 H 1325.4 3.81158 -1.68891 0
M  V30 14021 H 1324.06 3.17008 -0.702574 0
M  V30 14022 H 1325.07 2.76721 -4.37774 0
M  V30 14023 H 1321.75 3.68354 -1.96524 0
M  V30 14024 H 1323.14 3.09491 -5.96376 0
M  V30 14025 N 1325.86 1.36875 0.78122 0
M  V30 14026 C 1326.77 1.3404 1.92537 0
M  V30 14027 C 1327.78 0.241354 1.72318 0
M  V30 14028 O 1328.96 0.475128 1.95715 0
M  V30 14029 C 1326.02 1.13708 3.27523 0
M  V30 14030 C 1325.08 2.33165 3.60462 0
M  V30 14031 C 1324.32 2.13793 4.89007 0
M  V30 14032 O 1324.54 1.11732 5.5935 0
M  V30 14033 O 1323.47 3.01762 5.20791 0
M  V30 14034 H 1327.3 2.30386 1.97879 0
M  V30 14035 H 1324.88 1.17506 0.922637 0
M  V30 14036 H 1326.77 1.0432 4.08283 0
M  V30 14037 H 1325.44 0.204306 3.23055 0
M  V30 14038 H 1324.35 2.48123 2.79974 0
M  V30 14039 H 1325.68 3.24977 3.69663 0
M  V30 14040 N 1327.33 -1.00632 1.21289 0
M  V30 14041 C 1328.28 -2.09382 0.97097 0
M  V30 14042 C 1329.25 -1.65783 -0.102561 0
M  V30 14043 O 1330.44 -1.90749 0.0442886 0
M  V30 14044 C 1327.58 -3.40844 0.540314 0
M  V30 14045 C 1326.69 -3.97862 1.68314 0
M  V30 14046 C 1325.82 -5.17427 1.20178 0
M  V30 14047 C 1324.86 -5.66552 2.31702 0
M  V30 14048 N 1324 -6.77368 1.84709 0
M  V30 14049 H 1328.84 -2.29411 1.90196 0
M  V30 14050 H 1326.38 -1.12488 0.947885 0
M  V30 14051 H 1328.33 -4.16313 0.271881 0
M  V30 14052 H 1326.96 -3.20857 -0.353677 0
M  V30 14053 H 1326.02 -3.19391 2.06624 0
M  V30 14054 H 1327.33 -4.30314 2.52252 0
M  V30 14055 H 1326.48 -6.00138 0.889926 0
M  V30 14056 H 1325.22 -4.86566 0.332422 0
M  V30 14057 H 1324.23 -4.82438 2.63691 0
M  V30 14058 H 1325.45 -5.99443 3.19131 0
M  V30 14059 H 1323.4 -6.48315 1.00116 0
M  V30 14060 H 1323.31 -7.09067 2.62221 0
M  V30 14061 H 1324.58 -7.63617 1.56554 0
M  V30 14062 N 1328.81 -1.02043 -1.20104 0
M  V30 14063 C 1330.04 -0.731315 -1.93544 0
M  V30 14064 C 1330.45 0.708582 -1.74999 0
M  V30 14065 O 1329.81 1.481 -1.06642 0
M  V30 14066 C 1329.86 -1.06233 -3.45538 0
M  V30 14067 O 1329.58 -2.44568 -3.63481 0
M  V30 14068 C 1331.08 -0.794818 -4.36116 0
M  V30 14069 H 1328.3 -0.268248 -0.615048 0
M  V30 14070 H 1330.85 -1.36264 -1.52488 0
M  V30 14071 H 1329 -0.476341 -3.8446 0
M  V30 14072 H 1329.42 -2.5663 -4.57429 0
M  V30 14073 H 1330.89 -1.07647 -5.41402 0
M  V30 14074 H 1331.37 0.270944 -4.38363 0
M  V30 14075 H 1331.97 -1.36314 -4.02863 0
M  V30 14076 N 1330.29 1.35952 -0.797165 0
M  V30 14077 C 1331.7 1.81554 -0.435311 0
M  V30 14078 C 1332.05 1.66266 1.04164 0
M  V30 14079 O 1331.18 1.18796 1.80877 0
M  V30 14080 C 1331.77 3.29619 -0.783358 0
M  V30 14081 C 1330.33 3.73401 -0.47423 0
M  V30 14082 C 1329.48 2.58098 -1.01394 0
M  V30 14083 H 1332.43 1.24064 -0.989638 0
M  V30 14084 H 1332.45 3.80421 -0.0773381 0
M  V30 14085 H 1331.96 3.40715 -1.85836 0
M  V30 14086 H 1330.06 3.6786 0.592418 0
M  V30 14087 H 1330.18 4.68542 -1.00026 0
M  V30 14088 H 1328.54 2.50927 -0.436747 0
M  V30 14089 H 1329.32 2.71976 -2.09485 0
M  V30 14090 N 1331.77 0.549846 1.47697 0
M  V30 14091 C 1333.01 0.0230845 2.02787 0
M  V30 14092 C 1333.35 -1.32035 1.42409 0
M  V30 14093 O 1332.62 -1.85745 0.576978 0
M  V30 14094 C 1332.91 -0.0778363 3.60016 0
M  V30 14095 C 1332.76 1.29217 4.3084 0
M  V30 14096 C 1334.08 -0.794909 4.32862 0
M  V30 14097 H 1331.2 0.00986307 0.736934 0
M  V30 14098 H 1333.84 0.710714 1.76207 0
M  V30 14099 H 1331.99 -0.663464 3.82793 0
M  V30 14100 H 1333.66 1.92044 4.19424 0
M  V30 14101 H 1331.9 1.86883 3.91481 0
M  V30 14102 H 1332.57 1.17435 5.39364 0
M  V30 14103 H 1335.05 -0.297743 4.15033 0
M  V30 14104 H 1333.93 -0.834466 5.4252 0
M  V30 14105 H 1334.19 -1.84948 4.01555 0
M  V30 14106 N 1333.25 -1.54984 0.285932 0
M  V30 14107 C 1334.47 -2.04699 -0.333621 0
M  V30 14108 C 1334.9 -1.16252 -1.47875 0
M  V30 14109 O 1334.25 -0.163376 -1.80562 0
M  V30 14110 C 1334.3 -3.52022 -0.78187 0
M  V30 14111 O 1333.41 -3.66639 -1.88812 0
M  V30 14112 H 1332.75 -0.660579 -0.0673203 0
M  V30 14113 H 1335.28 -2.00171 0.423386 0
M  V30 14114 H 1335.29 -3.93591 -1.07473 0
M  V30 14115 H 1333.96 -4.15862 0.055893 0
M  V30 14116 H 1332.54 -3.36974 -1.59696 0
M  V30 14117 N 1334.72 -0.0133892 -1.57594 0
M  V30 14118 C 1336 0.706416 -1.82398 0
M  V30 14119 C 1336.38 1.91236 -0.893983 0
M  V30 14120 O 1335.73 2.28436 0.0541675 0
M  V30 14121 C 1335.94 1.09951 -3.31228 0
M  V30 14122 C 1337.29 1.49776 -3.97306 0
M  V30 14123 O 1338.31 1.19293 -3.3563 0
M  V30 14124 O 1337.17 2.06511 -5.0598 0
M  V30 14125 H 1334.26 0.345131 -0.751541 0
M  V30 14126 H 1336.81 -0.0398687 -1.69653 0
M  V30 14127 H 1335.58 0.240514 -3.9056 0
M  V30 14128 H 1335.21 1.90447 -3.49021 0
M  V30 14129 N 1336.2 1.55448 0.259558 0
M  V30 14130 C 1337.62 1.47588 0.607442 0
M  V30 14131 C 1337.82 0.701053 1.88911 0
M  V30 14132 O 1336.87 0.225305 2.51493 0
M  V30 14133 C 1338.19 2.91905 0.72192 0
M  V30 14134 C 1339.74 3.02201 0.815087 0
M  V30 14135 C 1340.21 4.47799 0.961231 0
M  V30 14136 N 1341.7 4.51684 1.02642 0
M  V30 14137 C 1342.44 5.61574 1.15854 0
M  V30 14138 N 1341.93 6.81301 1.257 0
M  V30 14139 N 1343.73 5.49344 1.1907 0
M  V30 14140 H 1335.88 2.04271 -0.581981 0
M  V30 14141 H 1338.14 0.926865 -0.199059 0
M  V30 14142 H 1337.85 3.51382 -0.149611 0
M  V30 14143 H 1337.72 3.41681 1.59793 0
M  V30 14144 H 1340.11 2.42813 1.67708 0
M  V30 14145 H 1340.19 2.55656 -0.0858102 0
M  V30 14146 H 1339.83 5.07794 0.103848 0
M  V30 14147 H 1339.76 4.92013 1.87698 0
M  V30 14148 H 1342.25 3.65446 0.962184 0
M  V30 14149 H 1342.57 7.60801 1.35652 0
M  V30 14150 H 1340.91 6.84087 1.2268 0
M  V30 14151 H 1344.1 4.54745 1.11018 0
M  V30 14152 H 1344.27 6.35025 1.29022 0
M  V30 14153 N 1337.68 -0.524672 1.4861 0
M  V30 14154 C 1338.93 -1.28211 1.5713 0
M  V30 14155 C 1339.26 -1.92626 0.246751 0
M  V30 14156 O 1338.53 -1.79553 -0.747725 0
M  V30 14157 C 1338.82 -2.36737 2.71344 0
M  V30 14158 C 1338.67 -1.76978 4.1352 0
M  V30 14159 C 1339.99 -3.3847 2.81294 0
M  V30 14160 H 1337.11 -0.46479 0.571961 0
M  V30 14161 H 1339.75 -0.583937 1.80804 0
M  V30 14162 H 1337.9 -2.96287 2.51289 0
M  V30 14163 H 1339.57 -1.21438 4.45029 0
M  V30 14164 H 1337.82 -1.07488 4.20272 0
M  V30 14165 H 1338.49 -2.55583 4.89266 0
M  V30 14166 H 1340.96 -2.88882 2.99477 0
M  V30 14167 H 1339.84 -4.11795 3.62928 0
M  V30 14168 H 1340.1 -3.99347 1.89669 0
M  V30 14169 N 1339.16 -1.37287 -0.77395 0
M  V30 14170 C 1340.39 -1.35563 -1.56302 0
M  V30 14171 C 1340.8 0.0595356 -1.88706 0
M  V30 14172 O 1340.16 1.02072 -1.51286 0
M  V30 14173 C 1340.21 -2.19195 -2.87464 0
M  V30 14174 O 1339.93 -3.55197 -2.5645 0
M  V30 14175 C 1341.43 -2.25425 -3.81704 0
M  V30 14176 H 1338.65 -0.464431 -0.484298 0
M  V30 14177 H 1341.2 -1.80597 -0.959425 0
M  V30 14178 H 1339.35 -1.77676 -3.44253 0
M  V30 14179 H 1339.76 -3.99011 -3.40427 0
M  V30 14180 H 1341.24 -2.8827 -4.70749 0
M  V30 14181 H 1341.72 -1.26205 -4.20677 0
M  V30 14182 H 1342.32 -2.67247 -3.30846 0
M  V30 14183 N 1340.64 0.999871 -1.21821 0
M  V30 14184 C 1341.58 2.08864 -0.98206 0
M  V30 14185 C 1342.55 1.65835 0.0937677 0
M  V30 14186 O 1343.74 1.90722 -0.0544038 0
M  V30 14187 C 1340.88 3.40553 -0.558382 0
M  V30 14188 C 1339.99 3.96964 -1.70422 0
M  V30 14189 C 1339.13 5.16782 -1.2292 0
M  V30 14190 C 1338.17 5.65315 -2.34703 0
M  V30 14191 N 1337.3 6.76379 -1.88299 0
M  V30 14192 H 1342.14 2.28399 -1.9141 0
M  V30 14193 H 1339.68 1.11984 -0.953837 0
M  V30 14194 H 1341.64 4.16163 -0.293955 0
M  V30 14195 H 1340.27 3.2104 0.336656 0
M  V30 14196 H 1339.32 3.18291 -2.08315 0
M  V30 14197 H 1340.63 4.2897 -2.54531 0
M  V30 14198 H 1339.79 5.99657 -0.92174 0
M  V30 14199 H 1338.52 4.86383 -0.358222 0
M  V30 14200 H 1337.53 4.81033 -2.66246 0
M  V30 14201 H 1338.75 5.97742 -3.22306 0
M  V30 14202 H 1336.7 6.47775 -1.03552 0
M  V30 14203 H 1336.62 7.07666 -2.65978 0
M  V30 14204 H 1337.89 7.62776 -1.60601 0
M  V30 14205 N 1342.11 1.02678 1.19562 0
M  V30 14206 C 1343.35 0.7307 1.90893 0
M  V30 14207 C 1343.72 -0.727166 1.77697 0
M  V30 14208 O 1344.92 -1.13623 2.43605 0
M  V30 14209 C 1343.19 1.16683 3.37816 0
M  V30 14210 S 1344.75 0.994271 4.27387 0
M  V30 14211 H 1341.57 0.266082 0.659334 0
M  V30 14212 H 1344.17 1.31617 1.44558 0
M  V30 14213 H 1342.87 2.22354 3.44945 0
M  V30 14214 H 1342.4 0.574559 3.89182 0
M  V30 14215 H 1344.42 -0.0963871 4.96106 0
M  V30 14216 N 1343.59 -1.35528 0.804364 0
M  V30 14217 C 1344.83 -2.00658 0.389299 0
M  V30 14218 C 1345.2 -1.62431 -1.02373 0
M  V30 14219 O 1346.4 -2.20264 -1.54068 0
M  V30 14220 C 1344.67 -3.52913 0.564569 0
M  V30 14221 S 1346.23 -4.38145 0.239597 0
M  V30 14222 H 1343.05 -0.695435 0.147958 0
M  V30 14223 H 1345.65 -1.65156 1.04613 0
M  V30 14224 H 1344.35 -3.78222 1.59299 0
M  V30 14225 H 1343.88 -3.93253 -0.10766 0
M  V30 14226 H 1345.9 -4.86952 -0.953533 0
M  V30 14227 N 1345.07 -0.557671 -1.47404 0
M  V30 14228 C 1346.3 -0.0386599 -2.06864 0
M  V30 14229 C 1346.71 1.25527 -1.41027 0
M  V30 14230 O 1346.07 1.75318 -0.506949 0
M  V30 14231 C 1346.12 0.160141 -3.61145 0
M  V30 14232 O 1345.84 -1.08255 -4.24515 0
M  V30 14233 C 1347.34 0.716381 -4.37473 0
M  V30 14234 H 1344.56 -0.0460523 -0.669418 0
M  V30 14235 H 1347.11 -0.771214 -1.894 0
M  V30 14236 H 1345.26 0.842826 -3.78121 0
M  V30 14237 H 1345.68 -0.88057 -5.17055 0
M  V30 14238 H 1347.15 0.804773 -5.46102 0
M  V30 14239 H 1347.63 1.72776 -4.03788 0
M  V30 14240 H 1348.23 0.0693787 -4.25243 0
M  V30 14241 N 1346.55 1.54831 -0.294147 0
M  V30 14242 C 1347.46 2.26939 0.594621 0
M  V30 14243 C 1348.48 1.30209 1.15419 0
M  V30 14244 O 1349.65 1.6318 1.18044 0
M  V30 14245 C 1346.72 2.9909 1.75345 0
M  V30 14246 C 1345.78 4.11342 1.22865 0
M  V30 14247 C 1345.01 4.80043 2.33225 0
M  V30 14248 O 1345.23 4.48062 3.52983 0
M  V30 14249 O 1344.17 5.67593 2.00304 0
M  V30 14250 H 1347.99 3.03698 0.00989235 0
M  V30 14251 H 1345.58 1.49276 -0.0608528 0
M  V30 14252 H 1347.46 3.44369 2.42875 0
M  V30 14253 H 1346.14 2.25232 2.32492 0
M  V30 14254 H 1345.04 3.70478 0.519279 0
M  V30 14255 H 1346.38 4.87158 0.702703 0
M  V30 14256 N 1348.03 0.0217466 1.57585 0
M  V30 14257 C 1349.25 -0.67246 1.96196 0
M  V30 14258 C 1349.68 -1.6529 0.897827 0
M  V30 14259 O 1349.04 -1.80743 -0.142002 0
M  V30 14260 C 1349.08 -1.36162 3.33905 0
M  V30 14261 O 1348.19 -2.47671 3.29747 0
M  V30 14262 H 1347.53 -0.177238 0.639908 0
M  V30 14263 H 1350.06 0.0814073 2.04438 0
M  V30 14264 H 1350.07 -1.7201 3.69968 0
M  V30 14265 H 1348.74 -0.642893 4.10901 0
M  V30 14266 H 1347.32 -2.13989 3.0539 0
M  V30 14267 N 1349.51 -1.55583 -0.251311 0
M  V30 14268 C 1350.44 -1.9296 -1.31486 0
M  V30 14269 C 1351.42 -0.794001 -1.50431 0
M  V30 14270 O 1352.6 -1.05393 -1.63113 0
M  V30 14271 C 1349.73 -2.22046 -2.67045 0
M  V30 14272 C 1348.69 -3.37816 -2.62801 0
M  V30 14273 C 1348.01 -3.52433 -4.02113 0
M  V30 14274 C 1349.31 -4.73626 -2.20171 0
M  V30 14275 H 1351.01 -2.82046 -1.00451 0
M  V30 14276 H 1348.55 -1.35702 -0.481775 0
M  V30 14277 H 1350.5 -2.46783 -3.41579 0
M  V30 14278 H 1349.23 -1.29782 -2.99707 0
M  V30 14279 H 1347.89 -3.13081 -1.90724 0
M  V30 14280 H 1347.54 -2.57597 -4.32034 0
M  V30 14281 H 1347.24 -4.30283 -4.00163 0
M  V30 14282 H 1348.76 -3.79486 -4.78354 0
M  V30 14283 H 1350.17 -4.97764 -2.84436 0
M  V30 14284 H 1348.57 -5.54547 -2.29341 0
M  V30 14285 H 1349.64 -4.70985 -1.1533 0
M  V30 14286 N 1350.98 0.516783 -1.48886 0
M  V30 14287 C 1352.23 1.27375 -1.57808 0
M  V30 14288 C 1352.56 1.92492 -0.256963 0
M  V30 14289 O 1351.84 1.79947 0.738193 0
M  V30 14290 C 1352.12 2.35295 -2.72595 0
M  V30 14291 C 1351.97 1.74783 -4.14453 0
M  V30 14292 C 1353.29 3.36973 -2.83085 0
M  V30 14293 H 1350.41 0.46175 -0.574418 0
M  V30 14294 H 1353.05 0.57434 -1.81111 0
M  V30 14295 H 1351.2 2.94951 -2.52857 0
M  V30 14296 H 1352.88 1.19076 -4.45666 0
M  V30 14297 H 1351.12 1.05258 -4.20836 0
M  V30 14298 H 1351.79 2.52985 -4.90615 0
M  V30 14299 H 1354.27 2.87289 -3.01005 0
M  V30 14300 H 1353.14 4.09864 -3.65106 0
M  V30 14301 H 1353.4 3.98336 -1.91784 0
M  V30 14302 N 1352.46 1.37696 0.766659 0
M  V30 14303 C 1353.41 1.33966 1.90147 0
M  V30 14304 C 1354.4 0.2276 1.67864 0
M  V30 14305 O 1355.61 0.395912 1.75592 0
M  V30 14306 H 1351.98 0.417611 0.625384 0
M  V30 14307 H 1353.96 2.29753 1.9041 0
M  V30 14308 C 1352.7 1.16859 3.27474 0
M  V30 14309 H 1352.03 2.01686 3.452 0
M  V30 14310 H 1353.47 1.18301 4.07162 0
M  V30 14311 C 1351.93 -0.125418 3.36666 0
M  V30 14312 O 1352.46 -1.10717 3.86141 0
M  V30 14313 N 1350.66 -0.17784 2.90055 0
M  V30 14314 H 1350.21 0.621737 2.49984 0
M  V30 14315 H 1350.17 -1.04325 2.96587 0
M  V30 14316 N 1353.94 -0.993397 1.22349 0
M  V30 14317 C 1355.36 -1.25708 0.983345 0
M  V30 14318 C 1355.56 -1.98888 -0.323372 0
M  V30 14319 O 1354.61 -2.2981 -1.04612 0
M  V30 14320 C 1355.92 -2.06935 2.1817 0
M  V30 14321 C 1357.47 -2.20121 2.22521 0
M  V30 14322 C 1357.95 -3.04735 3.41907 0
M  V30 14323 N 1359.44 -3.12322 3.42066 0
M  V30 14324 C 1360.17 -3.78081 4.31095 0
M  V30 14325 N 1359.67 -4.45771 5.3034 0
M  V30 14326 N 1361.46 -3.74837 4.18872 0
M  V30 14327 H 1353.61 -0.502767 2.06364 0
M  V30 14328 H 1355.88 -0.284656 0.904254 0
M  V30 14329 H 1355.58 -1.60525 3.12929 0
M  V30 14330 H 1355.46 -3.0769 2.18189 0
M  V30 14331 H 1357.84 -2.65745 1.28311 0
M  V30 14332 H 1357.92 -1.18798 2.26541 0
M  V30 14333 H 1357.57 -2.59811 4.36418 0
M  V30 14334 H 1357.5 -4.06198 3.35128 0
M  V30 14335 H 1359.99 -2.64146 2.7025 0
M  V30 14336 H 1360.3 -4.93687 5.94553 0
M  V30 14337 H 1358.65 -4.44521 5.34253 0
M  V30 14338 H 1361.84 -3.21116 3.40591 0
M  V30 14339 H 1362.01 -4.25806 4.8846 0
M  V30 14340 N 1355.42 -1.03311 -1.19015 0
M  V30 14341 C 1356.83 -0.750946 -1.4083 0
M  V30 14342 C 1357.03 0.662704 -1.90291 0
M  V30 14343 O 1356.09 1.42806 -2.08237 0
M  V30 14344 C 1357.4 -1.79064 -2.41571 0
M  V30 14345 C 1358.95 -1.81068 -2.55311 0
M  V30 14346 C 1359.43 -2.84008 -3.59309 0
M  V30 14347 N 1360.92 -2.82852 -3.6681 0
M  V30 14348 C 1361.65 -3.59156 -4.46984 0
M  V30 14349 N 1361.15 -4.45188 -5.30829 0
M  V30 14350 N 1362.94 -3.47679 -4.41674 0
M  V30 14351 H 1355.09 -1.94548 -0.852329 0
M  V30 14352 H 1357.35 -0.841344 -0.436858 0
M  V30 14353 H 1357.06 -2.80425 -2.12261 0
M  V30 14354 H 1356.93 -1.61646 -3.40809 0
M  V30 14355 H 1359.32 -0.803825 -2.83941 0
M  V30 14356 H 1359.4 -2.02562 -1.56212 0
M  V30 14357 H 1359.05 -3.84867 -3.3142 0
M  V30 14358 H 1358.98 -2.59771 -4.58069 0
M  V30 14359 H 1361.47 -2.20457 -3.06932 0
M  V30 14360 H 1361.78 -5.00139 -5.89135 0
M  V30 14361 H 1360.13 -4.49259 -5.30275 0
M  V30 14362 H 1363.32 -2.79876 -3.75216 0
M  V30 14363 H 1363.49 -4.07396 -5.03917 0
M  V30 14364 N 1356.9 1.35099 -0.81154 0
M  V30 14365 C 1358.31 1.81082 -0.454543 0
M  V30 14366 C 1358.66 1.67361 1.02395 0
M  V30 14367 O 1357.78 1.20707 1.79607 0
M  V30 14368 C 1358.38 3.2877 -0.818274 0
M  V30 14369 C 1356.94 3.72877 -0.513808 0
M  V30 14370 C 1356.08 2.57008 -1.04125 0
M  V30 14371 H 1359.03 1.23007 -1.00274 0
M  V30 14372 H 1359.06 3.80318 -0.117683 0
M  V30 14373 H 1358.57 3.38725 -1.89439 0
M  V30 14374 H 1356.67 3.68468 0.553368 0
M  V30 14375 H 1356.78 4.67455 -1.0499 0
M  V30 14376 H 1355.15 2.5045 -0.463337 0
M  V30 14377 H 1355.93 2.69738 -2.12358 0
M  V30 14378 N 1358.37 0.56548 1.47106 0
M  V30 14379 C 1359.61 0.0469867 2.04346 0
M  V30 14380 C 1359.98 -1.28183 1.42944 0
M  V30 14381 O 1361.18 -1.88852 1.91281 0
M  V30 14382 C 1359.45 -0.0357764 3.57382 0
M  V30 14383 S 1361.01 -0.499194 4.35951 0
M  V30 14384 H 1357.83 0.0291355 0.710403 0
M  V30 14385 H 1360.43 0.754085 1.80371 0
M  V30 14386 H 1359.13 0.935578 3.99594 0
M  V30 14387 H 1358.66 -0.766177 3.85867 0
M  V30 14388 H 1360.68 -1.75732 4.6404 0
M  V30 14389 N 1359.85 -1.54672 0.302354 0
M  V30 14390 C 1361.1 -2.00167 -0.306524 0
M  V30 14391 C 1361.43 -1.19073 -1.53791 0
M  V30 14392 O 1360.68 -0.255328 -1.94027 0
M  V30 14393 C 1360.98 -3.5035 -0.70638 0
M  V30 14394 C 1360.65 -4.48907 0.423429 0
M  V30 14395 C 1359.31 -4.75575 0.733586 0
M  V30 14396 C 1361.66 -5.07588 1.18338 0
M  V30 14397 C 1358.99 -5.58186 1.80679 0
M  V30 14398 C 1361.34 -5.91367 2.24651 0
M  V30 14399 C 1360.01 -6.16345 2.56272 0
M  V30 14400 H 1359.28 -0.732462 -0.112165 0
M  V30 14401 H 1361.92 -1.86798 0.421732 0
M  V30 14402 H 1360.23 -3.61335 -1.51474 0
M  V30 14403 H 1361.92 -3.82977 -1.18869 0
M  V30 14404 H 1358.51 -4.28256 0.171591 0
M  V30 14405 H 1362.7 -4.86985 0.957018 0
M  V30 14406 H 1357.95 -5.75776 2.05649 0
M  V30 14407 H 1362.13 -6.35862 2.83994 0
M  V30 14408 H 1359.76 -6.80148 3.39563 0
M  V30 14409 N 1361.33 -0.0301034 -1.57571 0
M  V30 14410 C 1362.56 0.662045 -1.9655 0
M  V30 14411 C 1362.98 1.64811 -0.906581 0
M  V30 14412 O 1362.34 1.80816 0.132415 0
M  V30 14413 C 1362.39 1.34389 -3.34622 0
M  V30 14414 O 1361.49 2.45919 -3.31056 0
M  V30 14415 H 1360.83 0.173842 -0.640839 0
M  V30 14416 H 1363.36 -0.092248 -2.04392 0
M  V30 14417 H 1363.37 1.70045 -3.70875 0
M  V30 14418 H 1362.05 0.621092 -4.11236 0
M  V30 14419 H 1360.62 2.12367 -3.06521 0
M  V30 14420 N 1362.81 1.55714 0.243056 0
M  V30 14421 C 1363.77 1.89832 1.28438 0
M  V30 14422 C 1364.77 0.775083 1.40887 0
M  V30 14423 O 1365.96 1.04304 1.39521 0
M  V30 14424 C 1363.09 2.13016 2.66153 0
M  V30 14425 H 1364.29 2.82947 0.994022 0
M  V30 14426 H 1361.84 1.48665 0.482521 0
M  V30 14427 H 1362.57 1.22381 3.00322 0
M  V30 14428 H 1362.36 2.94824 2.58498 0
M  V30 14429 H 1363.85 2.40581 3.41336 0
M  V30 14430 N 1364.29 -0.50888 1.49158 0
M  V30 14431 C 1365.22 -1.62008 1.68154 0
M  V30 14432 C 1366.2 -1.61624 0.53025 0
M  V30 14433 O 1367.38 -1.78489 0.765205 0
M  V30 14434 C 1364.51 -3.00525 1.74075 0
M  V30 14435 C 1363.47 -3.15773 2.88915 0
M  V30 14436 C 1362.79 -4.55562 2.79942 0
M  V30 14437 C 1364.09 -2.96542 4.29953 0
M  V30 14438 H 1365.79 -1.46365 2.61185 0
M  V30 14439 H 1363.33 -0.702705 1.2569 0
M  V30 14440 H 1365.29 -3.78154 1.8595 0
M  V30 14441 H 1364.01 -3.17238 0.776373 0
M  V30 14442 H 1362.67 -2.40567 2.76628 0
M  V30 14443 H 1362.32 -4.6914 1.81429 0
M  V30 14444 H 1362.02 -4.66706 3.57015 0
M  V30 14445 H 1363.54 -5.35262 2.93814 0
M  V30 14446 H 1364.95 -3.63947 4.42963 0
M  V30 14447 H 1363.35 -3.19164 5.08187 0
M  V30 14448 H 1364.42 -1.92745 4.44946 0
M  V30 14449 N 1365.76 -1.381 -0.759346 0
M  V30 14450 C 1366.67 -1.37086 -1.9038 0
M  V30 14451 C 1367.69 -0.268738 -1.71912 0
M  V30 14452 O 1368.87 -0.506205 -1.94935 0
M  V30 14453 C 1365.93 -1.18905 -3.25672 0
M  V30 14454 C 1364.99 -2.3887 -3.56707 0
M  V30 14455 C 1364.23 -2.21546 -4.85544 0
M  V30 14456 O 1364.45 -1.20616 -5.57501 0
M  V30 14457 O 1363.38 -3.10009 -5.15924 0
M  V30 14458 H 1367.21 -2.33505 -1.94188 0
M  V30 14459 H 1364.79 -1.18959 -0.903826 0
M  V30 14460 H 1366.68 -1.10803 -4.06572 0
M  V30 14461 H 1365.35 -0.255675 -3.22689 0
M  V30 14462 H 1364.26 -2.52546 -2.75992 0
M  V30 14463 H 1365.59 -3.30817 -3.64446 0
M  V30 14464 N 1367.24 0.986894 -1.22875 0
M  V30 14465 C 1368.49 1.72985 -1.05849 0
M  V30 14466 C 1368.82 1.89939 0.404594 0
M  V30 14467 O 1368.1 1.44693 1.29978 0
M  V30 14468 C 1368.38 3.13193 -1.77714 0
M  V30 14469 C 1368.23 3.0385 -3.31655 0
M  V30 14470 C 1369.55 4.12486 -1.53438 0
M  V30 14471 H 1366.67 0.627877 -0.385926 0
M  V30 14472 H 1369.31 1.14936 -1.51294 0
M  V30 14473 H 1367.46 3.62751 -1.39083 0
M  V30 14474 H 1369.13 2.61866 -3.79768 0
M  V30 14475 H 1367.38 2.4051 -3.61023 0
M  V30 14476 H 1368.05 4.03092 -3.77122 0
M  V30 14477 H 1370.52 3.71709 -1.87007 0
M  V30 14478 H 1369.4 5.08694 -2.06207 0
M  V30 14479 H 1369.66 4.39613 -0.468294 0
M  V30 14480 N 1368.72 1.0394 1.18466 0
M  V30 14481 C 1370 0.65632 1.8426 0
M  V30 14482 C 1370.38 -0.864288 1.92596 0
M  V30 14483 O 1369.73 -1.76524 1.45092 0
M  V30 14484 C 1369.94 1.33067 3.22636 0
M  V30 14485 C 1371.28 1.46065 3.98686 0
M  V30 14486 O 1372.31 1.28867 3.32072 0
M  V30 14487 O 1371.17 1.74078 5.18034 0
M  V30 14488 H 1368.26 0.229484 0.794523 0
M  V30 14489 H 1370.81 1.13821 1.25868 0
M  V30 14490 H 1369.58 2.36866 3.11465 0
M  V30 14491 H 1369.2 0.837313 3.88683 0
M  V30 14492 N 1370.2 -1.34667 0.818693 0
M  V30 14493 C 1371.11 -2.33375 0.239429 0
M  V30 14494 C 1372.12 -1.62428 -0.623957 0
M  V30 14495 O 1373.3 -1.94223 -0.532854 0
M  V30 14496 C 1370.37 -3.41598 -0.59258 0
M  V30 14497 C 1369.43 -4.28301 0.292712 0
M  V30 14498 C 1368.66 -5.31356 -0.499682 0
M  V30 14499 O 1368.88 -5.43426 -1.73334 0
M  V30 14500 O 1367.82 -6.01789 0.115778 0
M  V30 14501 H 1371.64 -2.84738 1.05631 0
M  V30 14502 H 1369.23 -1.37651 0.58074 0
M  V30 14503 H 1371.11 -4.07692 -1.06607 0
M  V30 14504 H 1369.78 -2.92486 -1.38685 0
M  V30 14505 H 1368.69 -3.65145 0.81361 0
M  V30 14506 H 1370.02 -4.80843 1.05123 0
M  V30 14507 N 1371.68 -0.573274 -1.46804 0
M  V30 14508 C 1372.9 -0.0605984 -2.06811 0
M  V30 14509 C 1373.32 1.24024 -1.4235 0
M  V30 14510 O 1372.68 1.7477 -0.525515 0
M  V30 14511 C 1372.73 0.121828 -3.61295 0
M  V30 14512 O 1372.45 -1.12751 -4.23342 0
M  V30 14513 C 1373.95 0.669941 -4.38208 0
M  V30 14514 H 1371.17 -0.0531498 -0.668892 0
M  V30 14515 H 1373.71 -0.791259 -1.88572 0
M  V30 14516 H 1371.87 0.802674 -3.78993 0
M  V30 14517 H 1372.28 -0.935361 -5.16092 0
M  V30 14518 H 1373.76 0.746806 -5.46925 0
M  V30 14519 H 1374.23 1.68483 -4.05598 0
M  V30 14520 H 1374.84 0.0242721 -4.25293 0
M  V30 14521 N 1373.15 1.5451 -0.310553 0
M  V30 14522 C 1374.38 2.04442 0.297807 0
M  V30 14523 C 1374.79 1.18695 1.47337 0
M  V30 14524 O 1374.14 0.207405 1.82525 0
M  V30 14525 C 1374.2 3.50306 0.807851 0
M  V30 14526 C 1373.86 4.5635 -0.24369 0
M  V30 14527 C 1374.86 5.08656 -1.07539 0
M  V30 14528 C 1372.54 5.00798 -0.388138 0
M  V30 14529 C 1374.54 6.03961 -2.03738 0
M  V30 14530 C 1372.22 5.95921 -1.35357 0
M  V30 14531 C 1373.22 6.47387 -2.17667 0
M  V30 14532 O 1372.91 7.40644 -3.12571 0
M  V30 14533 H 1372.64 0.672646 0.0672525 0
M  V30 14534 H 1375.2 2.00389 -0.450948 0
M  V30 14535 H 1373.43 3.51714 1.6073 0
M  V30 14536 H 1375.12 3.83383 1.33314 0
M  V30 14537 H 1375.88 4.75105 -0.97471 0
M  V30 14538 H 1371.76 4.60361 0.242608 0
M  V30 14539 H 1375.3 6.44057 -2.68023 0
M  V30 14540 H 1371.2 6.2889 -1.45493 0
M  V30 14541 H 1371.97 7.58477 -3.0766 0
M  V30 14542 N 1374.63 0.0384594 1.57553 0
M  V30 14543 C 1375.88 -0.639085 1.92467 0
M  V30 14544 C 1376.21 -1.71239 0.916014 0
M  V30 14545 O 1375.49 -1.94408 -0.0598928 0
M  V30 14546 C 1375.77 -1.24693 3.37822 0
M  V30 14547 C 1375.62 -0.182544 4.49429 0
M  V30 14548 C 1376.94 -2.16226 3.8332 0
M  V30 14549 H 1374.06 -0.230852 0.699912 0
M  V30 14550 H 1376.7 0.0976276 1.89749 0
M  V30 14551 H 1374.85 -1.87481 3.40269 0
M  V30 14552 H 1376.53 0.448622 4.59113 0
M  V30 14553 H 1374.77 0.4909 4.31013 0
M  V30 14554 H 1375.44 -0.647626 5.48188 0
M  V30 14555 H 1377.92 -1.63413 3.82669 0
M  V30 14556 H 1376.79 -2.55705 4.85702 0
M  V30 14557 H 1377.05 -3.05722 3.19353 0
M  V30 14558 N 1376.11 -1.55841 -0.234795 0
M  V30 14559 C 1377.52 -1.68555 -0.802886 0
M  V30 14560 C 1377.87 -0.638107 -1.85533 0
M  V30 14561 O 1377 0.21333 -2.15346 0
M  V30 14562 C 1377.59 -3.0558 -1.46309 0
M  V30 14563 C 1376.15 -3.20192 -1.97874 0
M  V30 14564 C 1375.3 -2.64457 -0.834136 0
M  V30 14565 H 1378.25 -1.58697 -0.0103759 0
M  V30 14566 H 1378.27 -3.007 -2.33152 0
M  V30 14567 H 1377.78 -3.81792 -0.696868 0
M  V30 14568 H 1375.88 -2.48825 -2.77339 0
M  V30 14569 H 1376 -4.27251 -2.1678 0
M  V30 14570 H 1374.36 -2.22593 -1.23791 0
M  V30 14571 H 1375.14 -3.43205 -0.0807988 0
M  V30 14572 N 1377.59 0.500963 -1.49426 0
M  V30 14573 C 1378.54 1.6025 -1.66098 0
M  V30 14574 C 1379.51 1.58318 -0.502453 0
M  V30 14575 O 1380.69 1.76304 -0.729482 0
M  V30 14576 C 1377.83 2.98396 -1.73361 0
M  V30 14577 C 1376.94 3.10343 -3.00518 0
M  V30 14578 C 1376.08 4.39222 -2.9876 0
M  V30 14579 C 1375.12 4.44803 -4.20496 0
M  V30 14580 N 1374.26 5.6511 -4.16648 0
M  V30 14581 H 1379.1 1.45342 -2.60153 0
M  V30 14582 H 1376.63 0.707147 -1.28988 0
M  V30 14583 H 1378.59 3.78467 -1.75553 0
M  V30 14584 H 1377.22 3.12007 -0.827718 0
M  V30 14585 H 1376.27 2.23336 -3.07937 0
M  V30 14586 H 1377.58 3.10327 -3.90511 0
M  V30 14587 H 1376.74 5.27613 -2.99515 0
M  V30 14588 H 1375.48 4.41804 -2.06545 0
M  V30 14589 H 1374.48 3.54814 -4.19985 0
M  V30 14590 H 1375.71 4.43937 -5.13903 0
M  V30 14591 H 1373.65 5.68533 -3.2727 0
M  V30 14592 H 1373.57 5.6671 -5.00376 0
M  V30 14593 H 1374.84 6.55708 -4.21506 0
M  V30 14594 N 1379.07 1.38501 0.752011 0
M  V30 14595 C 1379.98 1.38094 1.8965 0
M  V30 14596 C 1380.99 0.277851 1.71767 0
M  V30 14597 O 1382.17 0.516536 1.94663 0
M  V30 14598 C 1379.23 1.2063 3.25037 0
M  V30 14599 C 1378.3 2.40758 3.55435 0
M  V30 14600 C 1377.53 2.24118 4.84362 0
M  V30 14601 O 1377.75 1.23571 5.56854 0
M  V30 14602 O 1376.69 3.12741 5.14273 0
M  V30 14603 H 1380.51 2.34532 1.92947 0
M  V30 14604 H 1378.1 1.19437 0.897504 0
M  V30 14605 H 1379.98 1.12957 4.05979 0
M  V30 14606 H 1378.65 0.272785 3.22549 0
M  V30 14607 H 1377.56 2.54006 2.74648 0
M  V30 14608 H 1378.89 3.32745 3.62686 0
M  V30 14609 N 1380.55 -0.980364 1.23396 0
M  V30 14610 C 1381.79 -1.72166 1.06607 0
M  V30 14611 C 1382.12 -1.90405 -0.397029 0
M  V30 14612 O 1381.38 -1.45363 -1.31027 0
M  V30 14613 C 1381.67 -3.12367 1.73671 0
M  V30 14614 C 1381.34 -3.14007 3.2359 0
M  V30 14615 C 1380 -3.14162 3.64494 0
M  V30 14616 C 1382.35 -3.09319 4.19489 0
M  V30 14617 C 1379.68 -3.07345 4.99756 0
M  V30 14618 C 1382.03 -3.04044 5.54743 0
M  V30 14619 C 1380.7 -3.02521 5.9501 0
M  V30 14620 H 1379.97 -0.63 0.390104 0
M  V30 14621 H 1382.62 -1.14727 1.5333 0
M  V30 14622 H 1380.92 -3.73193 1.19308 0
M  V30 14623 H 1382.62 -3.68493 1.58159 0
M  V30 14624 H 1379.21 -3.14644 2.91028 0
M  V30 14625 H 1383.39 -3.08339 3.88897 0
M  V30 14626 H 1378.65 -3.04519 5.30168 0
M  V30 14627 H 1382.82 -2.99374 6.28767 0
M  V30 14628 H 1380.45 -2.96994 6.99785 0
M  V30 14629 N 1382.02 -1.04567 -1.17913 0
M  V30 14630 C 1382.97 -0.634939 -2.23766 0
M  V30 14631 C 1383.97 0.340723 -1.65938 0
M  V30 14632 O 1385.17 0.207467 -1.788 0
M  V30 14633 H 1381.55 -0.187129 -0.728345 0
M  V30 14634 H 1383.52 -1.53798 -2.55712 0
M  V30 14635 C 1382.27 -0.0190662 -3.47695 0
M  V30 14636 H 1381.59 -0.760881 -3.92493 0
M  V30 14637 H 1383.03 0.231035 -4.2337 0
M  V30 14638 C 1381.49 1.23246 -3.13548 0
M  V30 14639 O 1382.02 2.32262 -3.27746 0
M  V30 14640 N 1380.22 1.12768 -2.67828 0
M  V30 14641 H 1379.77 0.240547 -2.56474 0
M  V30 14642 H 1379.73 1.96594 -2.45353 0
M  V30 14643 N 1383.5 1.34231 -0.825823 0
M  V30 14644 C 1384.46 2.27776 -0.25512 0
M  V30 14645 C 1385.46 1.50409 0.568654 0
M  V30 14646 O 1386.65 1.69907 0.384337 0
M  V30 14647 C 1383.79 3.348 0.642013 0
M  V30 14648 H 1384.98 2.79763 -1.0804 0
M  V30 14649 H 1382.53 1.44412 -0.597904 0
M  V30 14650 H 1383.27 2.88032 1.49024 0
M  V30 14651 H 1383.05 3.92064 0.0527756 0
M  V30 14652 H 1384.54 4.0457 1.03502 0
M  V30 14653 N 1384.98 0.581051 1.46498 0
M  V30 14654 C 1385.89 -0.155669 2.34083 0
M  V30 14655 C 1386.91 -0.887728 1.49651 0
M  V30 14656 O 1388.08 -0.851284 1.82524 0
M  V30 14657 C 1385.15 -1.15752 3.26806 0
M  V30 14658 C 1384.21 -0.43031 4.27138 0
M  V30 14659 C 1383.44 -1.38443 5.15431 0
M  V30 14660 O 1383.66 -2.62084 5.06624 0
M  V30 14661 O 1382.6 -0.89592 5.95195 0
M  V30 14662 H 1386.42 0.56341 2.98428 0
M  V30 14663 H 1384.01 0.341466 1.45445 0
M  V30 14664 H 1385.89 -1.73523 3.84015 0
M  V30 14665 H 1384.57 -1.85809 2.65059 0
M  V30 14666 H 1383.47 0.1892 3.73621 0
M  V30 14667 H 1384.81 0.229263 4.91666 0
M  V30 14668 N 1386.46 -1.54343 0.318742 0
M  V30 14669 C 1387.69 -2.04894 -0.287378 0
M  V30 14670 C 1388.1 -1.19514 -1.46157 0
M  V30 14671 O 1387.46 -0.224722 -1.81111 0
M  V30 14672 C 1387.51 -3.54124 -0.726505 0
M  V30 14673 O 1387.23 -4.36261 0.400968 0
M  V30 14674 C 1388.73 -4.20748 -1.39594 0
M  V30 14675 H 1385.95 -0.668323 -0.0598724 0
M  V30 14676 H 1388.49 -1.99177 0.463531 0
M  V30 14677 H 1386.65 -3.60145 -1.4274 0
M  V30 14678 H 1387.06 -5.2447 0.0558714 0
M  V30 14679 H 1388.54 -5.26632 -1.65418 0
M  V30 14680 H 1389.01 -3.71566 -2.3417 0
M  V30 14681 H 1389.62 -4.18852 -0.737749 0
M  V30 14682 N 1387.94 -0.0468143 -1.5753 0
M  V30 14683 C 1389.18 0.627939 -1.92518 0
M  V30 14684 C 1389.51 1.71107 -0.924801 0
M  V30 14685 O 1388.77 1.95597 0.0635812 0
M  V30 14686 C 1389.06 1.26669 -3.342 0
M  V30 14687 C 1388.73 0.312184 -4.49818 0
M  V30 14688 C 1387.39 0.0495202 -4.81175 0
M  V30 14689 C 1389.74 -0.342228 -5.20075 0
M  V30 14690 C 1387.07 -0.875064 -5.80137 0
M  V30 14691 C 1389.42 -1.25498 -6.20027 0
M  V30 14692 C 1388.09 -1.52636 -6.49814 0
M  V30 14693 H 1387.36 0.229779 -0.704473 0
M  V30 14694 H 1390.01 -0.112363 -1.9117 0
M  V30 14695 H 1388.31 2.08215 -3.31894 0
M  V30 14696 H 1390.01 1.79563 -3.5855 0
M  V30 14697 H 1386.6 0.527088 -4.25347 0
M  V30 14698 H 1390.78 -0.152384 -4.96066 0
M  V30 14699 H 1386.04 -1.09284 -6.01554 0
M  V30 14700 H 1390.21 -1.76815 -6.7358 0
M  V30 14701 H 1387.84 -2.24443 -7.26312 0
M  V30 14702 N 1389.41 1.55964 0.226527 0
M  V30 14703 C 1390.64 1.82823 0.968673 0
M  V30 14704 C 1391.06 0.625281 1.78145 0
M  V30 14705 O 1390.41 -0.40617 1.77923 0
M  V30 14706 C 1390.47 3.08143 1.89024 0
M  V30 14707 O 1390.19 4.23797 1.11032 0
M  V30 14708 C 1391.69 3.47954 2.74669 0
M  V30 14709 H 1388.91 0.607876 0.284126 0
M  V30 14710 H 1391.45 2.03048 0.243258 0
M  V30 14711 H 1389.61 2.89908 2.56967 0
M  V30 14712 H 1390.02 4.94957 1.73546 0
M  V30 14713 H 1391.49 4.38691 3.35044 0
M  V30 14714 H 1391.97 2.69476 3.46813 0
M  V30 14715 H 1392.58 3.6861 2.12147 0
M  V30 14716 N 1390.89 -0.493031 1.4969 0
M  V30 14717 C 1392.14 -1.24664 1.59578 0
M  V30 14718 C 1392.47 -1.92385 0.286075 0
M  V30 14719 O 1391.72 -1.81712 -0.726586 0
M  V30 14720 C 1392.02 -2.33014 2.70997 0
M  V30 14721 C 1391.69 -1.82697 4.12229 0
M  V30 14722 C 1390.35 -1.68694 4.50662 0
M  V30 14723 C 1392.7 -1.45127 5.00587 0
M  V30 14724 C 1390.03 -1.15512 5.75216 0
M  V30 14725 C 1392.38 -0.933951 6.25668 0
M  V30 14726 C 1391.05 -0.780378 6.62923 0
M  V30 14727 H 1390.32 -0.456178 0.583937 0
M  V30 14728 H 1392.96 -0.546091 1.83549 0
M  V30 14729 H 1391.27 -3.08889 2.41029 0
M  V30 14730 H 1392.96 -2.91041 2.75855 0
M  V30 14731 H 1389.55 -1.94557 3.81897 0
M  V30 14732 H 1393.74 -1.5479 4.71544 0
M  V30 14733 H 1388.99 -1.0234 6.02774 0
M  V30 14734 H 1393.17 -0.634088 6.93507 0
M  V30 14735 H 1390.8 -0.366111 7.59318 0
M  V30 14736 N 1392.37 -1.38898 -0.744656 0
M  V30 14737 C 1393.32 -1.33342 -1.84943 0
M  V30 14738 C 1394.3 -0.216036 -1.59443 0
M  V30 14739 O 1395.5 -0.452764 -1.71111 0
M  V30 14740 C 1392.63 -1.16966 -3.2276 0
M  V30 14741 C 1391.71 -2.33365 -3.54121 0
M  V30 14742 N 1392.1 -3.58824 -3.56481 0
M  V30 14743 C 1390.4 -2.26112 -3.84434 0
M  V30 14744 C 1391.1 -4.35741 -3.85364 0
M  V30 14745 N 1390.08 -3.65206 -4.02648 0
M  V30 14746 H 1393.88 -2.28321 -1.85059 0
M  V30 14747 H 1391.39 -1.32257 -0.94244 0
M  V30 14748 H 1393.39 -1.11069 -4.01832 0
M  V30 14749 H 1392.05 -0.229288 -3.23889 0
M  V30 14750 H 1393.06 -3.92377 -3.38025 0
M  V30 14751 H 1389.74 -1.40283 -3.93226 0
M  V30 14752 H 1391.13 -5.44445 -3.93738 0
M  V30 14753 N 1393.85 0.973806 -1.23914 0
M  V30 14754 C 1394.81 2.04892 -1.02723 0
M  V30 14755 C 1395.81 1.60795 0.0132972 0
M  V30 14756 O 1397 1.72714 -0.227084 0
M  V30 14757 C 1394.13 3.36341 -0.555667 0
M  V30 14758 H 1395.33 2.25124 -1.98139 0
M  V30 14759 H 1392.88 1.14817 -1.06051 0
M  V30 14760 H 1393.61 3.21799 0.40197 0
M  V30 14761 H 1393.4 3.69689 -1.30661 0
M  V30 14762 H 1394.89 4.15398 -0.428248 0
M  V30 14763 N 1395.33 1.05191 1.17357 0
M  V30 14764 C 1396.6 0.675826 1.83554 0
M  V30 14765 C 1396.98 -0.843812 1.93502 0
M  V30 14766 O 1396.33 -1.74975 1.46956 0
M  V30 14767 C 1396.54 1.36481 3.21207 0
M  V30 14768 C 1397.89 1.50285 3.97114 0
M  V30 14769 O 1398.91 1.32382 3.30686 0
M  V30 14770 O 1397.77 1.79562 5.16159 0
M  V30 14771 H 1394.87 0.237898 0.792044 0
M  V30 14772 H 1397.41 1.1515 1.24654 0
M  V30 14773 H 1396.18 2.40156 3.08935 0
M  V30 14774 H 1395.81 0.878491 3.87774 0
M  V30 14775 N 1396.8 -1.33791 0.83293 0
M  V30 14776 C 1398.05 -1.97233 0.422127 0
M  V30 14777 C 1398.37 -1.66738 -1.02264 0
M  V30 14778 O 1399.57 -2.23747 -1.53783 0
M  V30 14779 C 1398.03 -3.5295 0.703872 0
M  V30 14780 C 1397.64 -3.92329 2.16292 0
M  V30 14781 C 1399.38 -4.22973 0.359727 0
M  V30 14782 C 1397.29 -5.40999 2.38903 0
M  V30 14783 H 1396.22 -0.738082 0.154112 0
M  V30 14784 H 1398.87 -1.52494 1.02068 0
M  V30 14785 H 1397.25 -3.95985 0.0350184 0
M  V30 14786 H 1398.42 -3.6037 2.87176 0
M  V30 14787 H 1396.74 -3.35271 2.46947 0
M  V30 14788 H 1399.34 -5.32297 0.506366 0
M  V30 14789 H 1399.68 -4.10428 -0.696743 0
M  V30 14790 H 1400.21 -3.85449 0.983568 0
M  V30 14791 H 1396.95 -5.58541 3.43093 0
M  V30 14792 H 1396.47 -5.74438 1.72573 0
M  V30 14793 H 1398.15 -6.07809 2.2176 0
M  V30 14794 N 1398.28 -0.588812 -1.46187 0
M  V30 14795 C 1399.52 -0.0794904 -2.04245 0
M  V30 14796 C 1399.89 1.25893 -1.44965 0
M  V30 14797 O 1401.09 1.85785 -1.94261 0
M  V30 14798 C 1399.36 -0.0210846 -3.57394 0
M  V30 14799 S 1400.92 0.429775 -4.3669 0
M  V30 14800 H 1397.74 -0.0404337 -0.709849 0
M  V30 14801 H 1400.34 -0.782686 -1.79149 0
M  V30 14802 H 1399.04 -0.999032 -3.98055 0
M  V30 14803 H 1398.57 0.704691 -3.87037 0
M  V30 14804 H 1400.59 1.68327 -4.66777 0
M  V30 14805 N 1399.76 1.54172 -0.326923 0
M  V30 14806 C 1400.99 2.05044 0.276508 0
M  V30 14807 C 1401.4 1.20288 1.45521 0
M  V30 14808 O 1400.76 0.234324 1.80989 0
M  V30 14809 C 1400.81 3.54505 0.707714 0
M  V30 14810 O 1400.53 4.36042 -0.424098 0
M  V30 14811 C 1402.03 4.21482 1.3736 0
M  V30 14812 H 1399.25 0.668632 0.0563273 0
M  V30 14813 H 1401.8 1.98929 -0.474087 0
M  V30 14814 H 1399.95 3.60896 1.40828 0
M  V30 14815 H 1400.37 5.24433 -0.0836846 0
M  V30 14816 H 1401.84 5.27501 1.62623 0
M  V30 14817 H 1402.32 3.72802 2.32196 0
M  V30 14818 H 1402.92 4.19238 0.715526 0
M  V30 14819 N 1401.24 0.0551678 1.57503 0
M  V30 14820 C 1402.17 -0.915714 2.14795 0
M  V30 14821 C 1403.15 -1.32179 1.07065 0
M  V30 14822 O 1404.33 -1.39579 1.35023 0
M  V30 14823 C 1401.46 -2.18916 2.69616 0
M  V30 14824 C 1400.42 -1.92303 3.82366 0
M  V30 14825 C 1399.74 -3.26136 4.23721 0
M  V30 14826 C 1401.04 -1.24146 5.07331 0
M  V30 14827 H 1402.74 -0.438499 2.96171 0
M  V30 14828 H 1400.28 -0.209477 1.42468 0
M  V30 14829 H 1402.24 -2.87239 3.08337 0
M  V30 14830 H 1400.96 -2.6885 1.85437 0
M  V30 14831 H 1399.62 -1.26391 3.44123 0
M  V30 14832 H 1399.27 -3.73879 3.36487 0
M  V30 14833 H 1398.97 -3.09126 4.99715 0
M  V30 14834 H 1400.49 -3.95684 4.65045 0
M  V30 14835 H 1401.91 -1.8251 5.43473 0
M  V30 14836 H 1400.3 -1.17449 5.88494 0
M  V30 14837 H 1401.37 -0.218073 4.84409 0
M  V30 14838 N 1402.72 -1.56081 -0.218252 0
M  V30 14839 C 1403.94 -1.83681 -0.963119 0
M  V30 14840 C 1404.37 -0.635909 -1.77025 0
M  V30 14841 O 1403.72 0.415327 -1.76479 0
M  V30 14842 C 1403.77 -3.09302 -1.85376 0
M  V30 14843 O 1402.88 -2.88228 -2.94955 0
M  V30 14844 H 1402.22 -0.605495 -0.272529 0
M  V30 14845 H 1404.75 -2.03297 -0.230567 0
M  V30 14846 H 1404.76 -3.39493 -2.26294 0
M  V30 14847 H 1403.43 -3.96337 -1.26054 0
M  V30 14848 H 1402.01 -2.69279 -2.57959 0
M  V30 14849 N 1404.2 0.485086 -1.49949 0
M  V30 14850 C 1405.11 1.61089 -1.70551 0
M  V30 14851 C 1406.12 1.63752 -0.588333 0
M  V30 14852 O 1407.3 1.81879 -0.86498 0
M  V30 14853 C 1404.36 2.97382 -1.78227 0
M  V30 14854 C 1403.42 3.05219 -3.01894 0
M  V30 14855 C 1402.66 4.35011 -3.09195 0
M  V30 14856 O 1402.88 5.24722 -2.23658 0
M  V30 14857 O 1401.81 4.48151 -4.01802 0
M  V30 14858 H 1405.64 1.46633 -2.65956 0
M  V30 14859 H 1403.22 0.663091 -1.33879 0
M  V30 14860 H 1405.11 3.78356 -1.85538 0
M  V30 14861 H 1403.78 3.12066 -0.860043 0
M  V30 14862 H 1402.69 2.23373 -3.00092 0
M  V30 14863 H 1404.02 2.95467 -3.93649 0
M  V30 14864 N 1405.67 1.39291 0.737279 0
M  V30 14865 C 1406.62 1.37829 1.85127 0
M  V30 14866 C 1407.59 0.238321 1.64381 0
M  V30 14867 O 1408.78 0.433081 1.8582 0
M  V30 14868 C 1405.92 1.22531 3.22615 0
M  V30 14869 C 1405.03 2.46052 3.55081 0
M  V30 14870 C 1404.16 2.2336 4.81958 0
M  V30 14871 C 1403.2 3.42569 5.0726 0
M  V30 14872 N 1402.34 3.19209 6.2534 0
M  V30 14873 H 1407.18 2.33056 1.85712 0
M  V30 14874 H 1404.72 1.15772 0.907484 0
M  V30 14875 H 1406.67 1.11673 4.01976 0
M  V30 14876 H 1405.3 0.30934 3.21314 0
M  V30 14877 H 1404.36 2.67521 2.70438 0
M  V30 14878 H 1405.67 3.3485 3.69698 0
M  V30 14879 H 1404.82 2.09732 5.69295 0
M  V30 14880 H 1403.56 1.31953 4.6951 0
M  V30 14881 H 1402.57 3.56698 4.18386 0
M  V30 14882 H 1403.79 4.34874 5.21595 0
M  V30 14883 H 1401.74 2.30464 6.14184 0
M  V30 14884 H 1401.65 4.01562 6.40534 0
M  V30 14885 H 1402.92 3.09269 7.15523 0
M  V30 14886 N 1407.15 -0.967221 1.24429 0
M  V30 14887 C 1408.06 -2.09582 1.05417 0
M  V30 14888 C 1409.08 -1.73999 -0.00516127 0
M  V30 14889 O 1410.25 -2.00472 0.193115 0
M  V30 14890 C 1407.32 -3.40327 0.661697 0
M  V30 14891 C 1406.38 -3.89854 1.79756 0
M  V30 14892 C 1405.61 -5.1436 1.42372 0
M  V30 14893 O 1405.84 -5.69536 0.313754 0
M  V30 14894 O 1404.77 -5.58283 2.24952 0
M  V30 14895 H 1408.6 -2.28517 2.00034 0
M  V30 14896 H 1406.18 -1.07978 1.03253 0
M  V30 14897 H 1408.06 -4.18943 0.454369 0
M  V30 14898 H 1406.74 -3.22691 -0.255348 0
M  V30 14899 H 1405.64 -3.12297 2.05964 0
M  V30 14900 H 1406.98 -4.11967 2.69339 0
M  V30 14901 N 1408.63 -1.05812 -1.16797 0
M  V30 14902 C 1410.05 -0.780649 -1.39205 0
M  V30 14903 C 1410.25 0.622191 -1.91653 0
M  V30 14904 O 1409.3 1.38357 -2.11219 0
M  V30 14905 C 1410.61 -1.84148 -2.37718 0
M  V30 14906 C 1412.16 -1.86442 -2.51413 0
M  V30 14907 C 1412.64 -2.91566 -3.53204 0
M  V30 14908 N 1414.13 -2.90568 -3.60727 0
M  V30 14909 C 1414.86 -3.68556 -4.39265 0
M  V30 14910 N 1414.36 -4.56348 -5.21266 0
M  V30 14911 N 1416.15 -3.56969 -4.342 0
M  V30 14912 H 1408.3 -1.96313 -0.810871 0
M  V30 14913 H 1410.57 -0.850421 -0.418913 0
M  V30 14914 H 1410.27 -2.84864 -2.06265 0
M  V30 14915 H 1410.15 -1.68838 -3.37303 0
M  V30 14916 H 1412.53 -0.863873 -2.82172 0
M  V30 14917 H 1412.61 -2.0583 -1.5188 0
M  V30 14918 H 1412.26 -3.91811 -3.23182 0
M  V30 14919 H 1412.19 -2.69429 -4.52455 0
M  V30 14920 H 1414.68 -2.26918 -3.02186 0
M  V30 14921 H 1414.99 -5.12523 -5.78394 0
M  V30 14922 H 1413.34 -4.60406 -5.20626 0
M  V30 14923 H 1416.53 -2.87772 -3.69195 0
M  V30 14924 H 1416.7 -4.17993 -4.95162 0
M  V30 14925 N 1410.11 1.33347 -0.840014 0
M  V30 14926 C 1411.04 2.28029 -0.231432 0
M  V30 14927 C 1412.05 1.51792 0.588488 0
M  V30 14928 O 1413.24 1.736 0.415371 0
M  V30 14929 C 1410.34 3.31745 0.692721 0
M  V30 14930 C 1409.51 4.37311 -0.0881144 0
M  V30 14931 C 1408.57 5.20689 0.759557 0
M  V30 14932 O 1407.6 5.68854 0.198347 0
M  V30 14933 N 1408.8 5.42082 2.07672 0
M  V30 14934 H 1411.57 2.80893 -1.04495 0
M  V30 14935 H 1409.13 1.46053 -0.698586 0
M  V30 14936 H 1411.12 3.84428 1.2648 0
M  V30 14937 H 1409.69 2.79148 1.40695 0
M  V30 14938 H 1408.91 3.85112 -0.841579 0
M  V30 14939 H 1410.2 5.04947 -0.624986 0
M  V30 14940 H 1409.6 5.04654 2.55619 0
M  V30 14941 H 1408.15 5.97817 2.59726 0
M  V30 14942 N 1411.59 0.596556 1.45873 0
M  V30 14943 C 1412.83 0.0850976 2.0152 0
M  V30 14944 C 1413.15 -1.28799 1.47208 0
M  V30 14945 O 1414.35 -1.89156 1.94762 0
M  V30 14946 C 1412.81 0.101488 3.59757 0
M  V30 14947 C 1412.42 1.47374 4.23066 0
M  V30 14948 C 1414.16 -0.355303 4.2301 0
M  V30 14949 C 1412.07 1.44711 5.73422 0
M  V30 14950 H 1411 0.0280444 0.753478 0
M  V30 14951 H 1413.65 0.750255 1.67462 0
M  V30 14952 H 1412.03 -0.630108 3.90955 0
M  V30 14953 H 1413.21 2.22617 4.03458 0
M  V30 14954 H 1411.52 1.87171 3.71962 0
M  V30 14955 H 1414.12 -0.394236 5.33245 0
M  V30 14956 H 1414.46 -1.37573 3.92911 0
M  V30 14957 H 1414.99 0.32267 3.96489 0
M  V30 14958 H 1411.73 2.44479 6.08203 0
M  V30 14959 H 1411.25 0.737102 5.95254 0
M  V30 14960 H 1412.93 1.16598 6.36407 0
M  V30 14961 N 1413.06 -1.53996 0.335095 0
M  V30 14962 C 1414.01 -2.24736 -0.52559 0
M  V30 14963 C 1414.98 -1.24244 -1.10239 0
M  V30 14964 O 1416.17 -1.52955 -1.14058 0
M  V30 14965 C 1413.31 -3.01732 -1.67487 0
M  V30 14966 C 1412.42 -4.17062 -1.1262 0
M  V30 14967 C 1411.55 -4.81563 -2.2421 0
M  V30 14968 C 1410.59 -5.88977 -1.6665 0
M  V30 14969 N 1409.73 -6.47293 -2.71949 0
M  V30 14970 H 1414.57 -2.97881 0.0842008 0
M  V30 14971 H 1412.11 -1.47003 0.0533254 0
M  V30 14972 H 1414.06 -3.44626 -2.35135 0
M  V30 14973 H 1412.69 -2.30899 -2.25578 0
M  V30 14974 H 1411.75 -3.78869 -0.340917 0
M  V30 14975 H 1413.06 -4.94346 -0.665113 0
M  V30 14976 H 1412.21 -5.27486 -2.9974 0
M  V30 14977 H 1410.95 -4.03685 -2.73659 0
M  V30 14978 H 1409.96 -5.42446 -0.89623 0
M  V30 14979 H 1411.18 -6.68758 -1.18064 0
M  V30 14980 H 1409.13 -5.72283 -3.20668 0
M  V30 14981 H 1409.04 -7.20024 -2.30438 0
M  V30 14982 H 1410.31 -6.97869 -3.47273 0
M  V30 14983 N 1414.54 -0.0635198 -1.57472 0
M  V30 14984 C 1415.49 0.906604 -2.12248 0
M  V30 14985 C 1416.46 1.30078 -1.0329 0
M  V30 14986 O 1417.64 1.38809 -1.30907 0
M  V30 14987 C 1414.78 2.1718 -2.68192 0
M  V30 14988 C 1413.9 1.831 -3.91278 0
M  V30 14989 C 1413.03 3.0417 -4.35493 0
M  V30 14990 C 1412.07 2.66069 -5.51248 0
M  V30 14991 N 1411.21 3.79871 -5.9046 0
M  V30 14992 H 1416.05 0.432606 -2.94843 0
M  V30 14993 H 1413.58 0.201895 -1.45708 0
M  V30 14994 H 1415.54 2.91231 -2.98732 0
M  V30 14995 H 1414.17 2.62135 -1.88375 0
M  V30 14996 H 1413.22 0.991473 -3.67252 0
M  V30 14997 H 1414.54 1.51063 -4.75375 0
M  V30 14998 H 1413.69 3.86507 -4.6765 0
M  V30 14999 H 1412.43 3.39395 -3.50232 0
M  V30 15000 H 1411.43 1.82151 -5.1875 0
M  V30 15001 H 1412.66 2.32023 -6.38234 0
M  V30 15002 H 1410.61 4.14873 -5.0815 0
M  V30 15003 H 1410.52 3.51573 -6.69277 0
M  V30 15004 H 1411.79 4.62811 -6.27237 0
M  V30 15005 N 1416.02 1.56195 0.209972 0
M  V30 15006 C 1416.95 1.89859 1.28398 0
M  V30 15007 C 1417.96 0.787878 1.42465 0
M  V30 15008 O 1419.15 1.06623 1.43156 0
M  V30 15009 C 1416.25 2.10231 2.65812 0
M  V30 15010 C 1415.43 3.41309 2.73545 0
M  V30 15011 C 1414.49 3.50973 3.92052 0
M  V30 15012 O 1413.51 4.23915 3.79849 0
M  V30 15013 N 1414.71 2.82965 5.06864 0
M  V30 15014 H 1417.48 2.82581 0.998411 0
M  V30 15015 H 1415.04 1.56882 0.399964 0
M  V30 15016 H 1417.03 2.13999 3.43492 0
M  V30 15017 H 1415.6 1.2408 2.8692 0
M  V30 15018 H 1414.82 3.49539 1.82253 0
M  V30 15019 H 1416.11 4.27636 2.7569 0
M  V30 15020 H 1415.51 2.23504 5.19676 0
M  V30 15021 H 1414.06 2.9238 5.82544 0
M  V30 15022 N 1417.5 -0.477127 1.50204 0
M  V30 15023 C 1418.73 -1.25307 1.64638 0
M  V30 15024 C 1419.14 -1.85942 0.327274 0
M  V30 15025 O 1418.5 -1.6895 -0.690088 0
M  V30 15026 C 1418.55 -2.36616 2.73304 0
M  V30 15027 O 1418.27 -1.78469 4.00101 0
M  V30 15028 C 1419.77 -3.27595 2.98658 0
M  V30 15029 H 1416.99 -0.379192 0.553583 0
M  V30 15030 H 1419.53 -0.5702 1.9639 0
M  V30 15031 H 1417.69 -3.00689 2.44264 0
M  V30 15032 H 1418.1 -2.51722 4.60148 0
M  V30 15033 H 1419.58 -4.01921 3.7837 0
M  V30 15034 H 1420.05 -3.86017 2.09493 0
M  V30 15035 H 1420.66 -2.69264 3.29206 0
M  V30 15036 N 1418.98 -1.3968 -0.729882 0
M  V30 15037 C 1419.94 -1.38577 -1.82562 0
M  V30 15038 C 1420.94 -0.281994 -1.58308 0
M  V30 15039 O 1422.13 -0.540165 -1.65614 0
M  V30 15040 C 1419.26 -1.16343 -3.20433 0
M  V30 15041 H 1420.45 -2.36086 -1.84942 0
M  V30 15042 H 1418.01 -1.25319 -0.934063 0
M  V30 15043 H 1418.74 -0.195372 -3.23711 0
M  V30 15044 H 1418.53 -1.96282 -3.39435 0
M  V30 15045 H 1420.02 -1.18325 -4.00486 0
M  V30 15046 N 1420.45 0.960609 -1.2494 0
M  V30 15047 C 1421.38 2.074 -1.07274 0
M  V30 15048 C 1422.37 1.70092 0.0164365 0
M  V30 15049 O 1423.55 1.93604 -0.151975 0
M  V30 15050 C 1420.68 3.40491 -0.684317 0
M  V30 15051 C 1419.63 3.91784 -1.72306 0
M  V30 15052 C 1418.96 5.21301 -1.18949 0
M  V30 15053 C 1420.26 4.18829 -3.12056 0
M  V30 15054 H 1421.95 2.22438 -2.00404 0
M  V30 15055 H 1419.5 1.06888 -0.964937 0
M  V30 15056 H 1421.45 4.17826 -0.547686 0
M  V30 15057 H 1420.18 3.25374 0.282687 0
M  V30 15058 H 1418.84 3.16613 -1.84802 0
M  V30 15059 H 1418.48 5.02549 -0.212892 0
M  V30 15060 H 1418.18 5.56588 -1.8837 0
M  V30 15061 H 1419.71 6.01238 -1.06513 0
M  V30 15062 H 1421.12 4.86844 -3.02748 0
M  V30 15063 H 1419.52 4.6536 -3.78894 0
M  V30 15064 H 1420.59 3.25333 -3.59564 0
M  V30 15065 N 1421.93 1.0643 1.16234 0
M  V30 15066 C 1423.18 0.782998 1.87075 0
M  V30 15067 C 1423.51 -0.688852 1.81572 0
M  V30 15068 O 1422.79 -1.50478 1.23234 0
M  V30 15069 C 1423.07 1.27997 3.36584 0
M  V30 15070 C 1422.92 2.81568 3.5077 0
M  V30 15071 C 1424.24 0.888975 4.31028 0
M  V30 15072 H 1421.36 0.28591 0.679282 0
M  V30 15073 H 1424 1.32046 1.36615 0
M  V30 15074 H 1422.15 0.822756 3.79688 0
M  V30 15075 H 1423.82 3.35508 3.16595 0
M  V30 15076 H 1422.07 3.2023 2.92635 0
M  V30 15077 H 1422.74 3.11406 4.55774 0
M  V30 15078 H 1425.21 1.28279 3.95833 0
M  V30 15079 H 1424.09 1.26416 5.34144 0
M  V30 15080 H 1424.35 -0.205973 4.4162 0
M  V30 15081 N 1423.41 -1.329 0.847073 0
M  V30 15082 C 1424.32 -2.32815 0.288878 0
M  V30 15083 C 1425.34 -1.63715 -0.589363 0
M  V30 15084 O 1426.51 -1.9531 -0.491537 0
M  V30 15085 C 1423.58 -3.42778 -0.519988 0
M  V30 15086 C 1422.64 -4.27584 0.383496 0
M  V30 15087 C 1421.87 -5.32296 -0.386862 0
M  V30 15088 O 1422.09 -5.4698 -1.61768 0
M  V30 15089 O 1421.03 -6.01408 0.2434 0
M  V30 15090 H 1424.85 -2.82434 1.11647 0
M  V30 15091 H 1422.44 -1.36388 0.609807 0
M  V30 15092 H 1424.32 -4.09862 -0.979357 0
M  V30 15093 H 1423 -2.95362 -1.3245 0
M  V30 15094 H 1421.9 -3.63338 0.890879 0
M  V30 15095 H 1423.24 -4.78505 1.15299 0
M  V30 15096 N 1424.89 -0.604284 -1.45555 0
M  V30 15097 C 1425.82 0.103859 -2.33269 0
M  V30 15098 C 1426.8 0.862104 -1.46635 0
M  V30 15099 O 1427.98 0.833308 -1.75413 0
M  V30 15100 C 1425.11 1.104 -3.29286 0
M  V30 15101 C 1424.07 0.459189 -4.2553 0
M  V30 15102 C 1423.39 1.56734 -5.11213 0
M  V30 15103 C 1424.69 -0.617509 -5.18637 0
M  V30 15104 H 1426.39 -0.628538 -2.92728 0
M  V30 15105 H 1423.93 -0.303711 -1.40761 0
M  V30 15106 H 1425.89 1.60794 -3.89517 0
M  V30 15107 H 1424.61 1.86695 -2.67979 0
M  V30 15108 H 1423.27 -0.0238508 -3.66592 0
M  V30 15109 H 1422.92 2.32049 -4.46276 0
M  V30 15110 H 1422.62 1.14142 -5.76407 0
M  V30 15111 H 1424.14 2.07361 -5.74312 0
M  V30 15112 H 1425.56 -0.197784 -5.72959 0
M  V30 15113 H 1423.95 -0.96499 -5.9229 0
M  V30 15114 H 1425.02 -1.49541 -4.61265 0
M  V30 15115 N 1426.37 1.53816 -0.343257 0
M  V30 15116 C 1427.61 2.01207 0.253721 0
M  V30 15117 C 1427.95 1.23069 1.50225 0
M  V30 15118 O 1427.22 0.31824 1.91879 0
M  V30 15119 C 1427.5 3.5559 0.56815 0
M  V30 15120 C 1427.36 4.44438 -0.692457 0
M  V30 15121 C 1428.68 4.17974 1.37788 0
M  V30 15122 H 1425.79 0.731392 0.0907427 0
M  V30 15123 H 1428.44 1.84254 -0.463736 0
M  V30 15124 H 1426.59 3.70166 1.17937 0
M  V30 15125 H 1428.26 4.41698 -1.33042 0
M  V30 15126 H 1426.5 4.13312 -1.3174 0
M  V30 15127 H 1427.17 5.5034 -0.427715 0
M  V30 15128 H 1429.65 4.07094 0.861043 0
M  V30 15129 H 1428.52 5.26068 1.56663 0
M  V30 15130 H 1428.79 3.72577 2.3799 0
M  V30 15131 N 1427.84 0.0718701 1.57436 0
M  V30 15132 C 1428.79 -0.895335 2.12726 0
M  V30 15133 C 1429.76 -1.29528 1.03979 0
M  V30 15134 O 1430.95 -1.38113 1.31642 0
M  V30 15135 C 1428.09 -2.15755 2.6934 0
M  V30 15136 C 1427.2 -1.81023 3.92243 0
M  V30 15137 C 1426.33 -3.01856 4.371 0
M  V30 15138 C 1425.37 -2.63141 5.52651 0
M  V30 15139 N 1424.51 -3.76734 5.92466 0
M  V30 15140 H 1429.35 -0.416964 2.95068 0
M  V30 15141 H 1426.89 -0.194165 1.45813 0
M  V30 15142 H 1428.85 -2.89642 3.00272 0
M  V30 15143 H 1427.48 -2.61132 1.89762 0
M  V30 15144 H 1426.53 -0.971983 3.67773 0
M  V30 15145 H 1427.84 -1.4854 4.76169 0
M  V30 15146 H 1426.99 -3.84022 4.69694 0
M  V30 15147 H 1425.73 -3.37533 3.52027 0
M  V30 15148 H 1424.74 -1.79397 5.19708 0
M  V30 15149 H 1425.96 -2.28635 6.39455 0
M  V30 15150 H 1423.91 -4.12173 5.10343 0
M  V30 15151 H 1423.83 -3.48019 6.71132 0
M  V30 15152 H 1425.09 -4.59479 6.29682 0
M  V30 15153 N 1429.32 -1.56304 -0.201686 0
M  V30 15154 C 1430.27 -1.90422 -1.25393 0
M  V30 15155 C 1431.26 -0.769236 -1.41321 0
M  V30 15156 O 1432.45 -1.03199 -1.43802 0
M  V30 15157 C 1429.58 -2.24157 -2.60016 0
M  V30 15158 C 1428.66 -3.44097 -2.47908 0
M  V30 15159 N 1429.05 -4.62185 -2.05471 0
M  V30 15160 C 1427.35 -3.48105 -2.78817 0
M  V30 15161 C 1428.05 -5.44345 -2.05095 0
M  V30 15162 N 1427.03 -4.84576 -2.46346 0
M  V30 15163 H 1430.83 -2.79227 -0.917045 0
M  V30 15164 H 1428.35 -1.57135 -0.410157 0
M  V30 15165 H 1430.34 -2.46782 -3.36012 0
M  V30 15166 H 1429 -1.36676 -2.94533 0
M  V30 15167 H 1430.01 -4.86974 -1.76285 0
M  V30 15168 H 1426.69 -2.71022 -3.17574 0
M  V30 15169 H 1428.08 -6.48914 -1.74242 0
M  V30 15170 N 1430.8 0.469154 -1.50455 0
M  V30 15171 C 1431.75 1.56691 -1.6946 0
M  V30 15172 C 1432.72 1.57217 -0.535921 0
M  V30 15173 O 1433.9 1.74717 -0.766715 0
M  V30 15174 C 1431.04 2.94651 -1.79651 0
M  V30 15175 C 1430.16 3.03899 -3.07033 0
M  V30 15176 C 1429.29 4.32786 -3.08009 0
M  V30 15177 C 1428.33 4.35784 -4.29836 0
M  V30 15178 N 1427.47 5.56145 -4.28541 0
M  V30 15179 H 1432.31 1.39791 -2.63178 0
M  V30 15180 H 1429.84 0.679628 -1.30459 0
M  V30 15181 H 1431.8 3.74658 -1.83541 0
M  V30 15182 H 1430.43 3.10182 -0.893713 0
M  V30 15183 H 1429.48 2.16754 -3.12605 0
M  V30 15184 H 1430.8 3.01974 -3.97005 0
M  V30 15185 H 1429.95 5.21141 -3.10639 0
M  V30 15186 H 1428.69 4.37323 -2.1587 0
M  V30 15187 H 1427.69 3.45825 -4.27417 0
M  V30 15188 H 1428.92 4.32937 -5.23204 0
M  V30 15189 H 1426.86 5.61464 -3.39256 0
M  V30 15190 H 1426.78 5.55969 -5.12284 0
M  V30 15191 H 1428.05 6.4662 -4.35319 0
M  V30 15192 N 1432.28 1.40065 0.722464 0
M  V30 15193 C 1433.69 1.33876 1.30131 0
M  V30 15194 C 1434.04 0.00899369 1.96198 0
M  V30 15195 O 1433.17 -0.893082 1.97112 0
M  V30 15196 C 1433.76 2.42469 2.36631 0
M  V30 15197 C 1432.32 2.39762 2.90157 0
M  V30 15198 C 1431.47 2.23704 1.63865 0
M  V30 15199 H 1434.42 1.49971 0.519077 0
M  V30 15200 H 1434.44 2.0998 3.17315 0
M  V30 15201 H 1433.95 3.39239 1.88517 0
M  V30 15202 H 1432.05 1.46669 3.42519 0
M  V30 15203 H 1432.16 3.35092 3.42419 0
M  V30 15204 H 1430.53 1.71098 1.88674 0
M  V30 15205 H 1431.31 3.22462 1.17785 0
M  V30 15206 N 1433.76 -0.95397 1.25448 0
M  V30 15207 C 1434.7 -2.05075 1.0589 0
M  V30 15208 C 1435.67 -1.66069 -0.0321545 0
M  V30 15209 O 1436.86 -1.90389 0.125152 0
M  V30 15210 C 1434 -3.38246 0.684391 0
M  V30 15211 C 1433.11 -3.90366 1.85037 0
M  V30 15212 C 1432.25 -5.11864 1.42016 0
M  V30 15213 C 1431.29 -5.56214 2.55523 0
M  V30 15214 N 1430.42 -6.68924 2.13272 0
M  V30 15215 H 1435.26 -2.21137 1.99755 0
M  V30 15216 H 1432.8 -1.08366 0.994742 0
M  V30 15217 H 1434.76 -4.14785 0.448209 0
M  V30 15218 H 1433.39 -3.22068 -0.217273 0
M  V30 15219 H 1432.44 -3.1034 2.19984 0
M  V30 15220 H 1433.75 -4.19228 2.70276 0
M  V30 15221 H 1432.91 -5.95823 1.14366 0
M  V30 15222 H 1431.65 -4.84718 0.538492 0
M  V30 15223 H 1430.65 -4.7082 2.83916 0
M  V30 15224 H 1431.88 -5.85368 3.44268 0
M  V30 15225 H 1429.82 -6.43486 1.27523 0
M  V30 15226 H 1429.74 -6.97307 2.92059 0
M  V30 15227 H 1431.01 -7.5629 1.88801 0
M  V30 15228 N 1435.24 -1.07045 -1.15668 0
M  V30 15229 C 1436.2 -0.69198 -2.18505 0
M  V30 15230 C 1437.2 0.266185 -1.58582 0
M  V30 15231 O 1438.39 0.0475566 -1.74135 0
M  V30 15232 C 1435.52 -0.0194196 -3.40894 0
M  V30 15233 H 1436.71 -1.60241 -2.53501 0
M  V30 15234 H 1434.27 -0.866598 -1.30076 0
M  V30 15235 H 1435 0.903398 -3.11463 0
M  V30 15236 H 1434.79 -0.708519 -3.85645 0
M  V30 15237 H 1436.28 0.230829 -4.16962 0
M  V30 15238 N 1436.71 1.32449 -0.85411 0
M  V30 15239 C 1437.94 2.01463 -0.471188 0
M  V30 15240 C 1438.36 1.64195 0.931954 0
M  V30 15241 O 1437.71 0.862994 1.60806 0
M  V30 15242 C 1437.76 3.56486 -0.600022 0
M  V30 15243 O 1437.49 3.92414 -1.94789 0
M  V30 15244 C 1438.99 4.42773 -0.216036 0
M  V30 15245 H 1436.21 0.644914 -0.185275 0
M  V30 15246 H 1438.75 1.6904 -1.1509 0
M  V30 15247 H 1436.91 3.87387 0.0319488 0
M  V30 15248 H 1437.32 4.87133 -1.94427 0
M  V30 15249 H 1438.79 5.50843 -0.357186 0
M  V30 15250 H 1439.27 4.31025 0.843468 0
M  V30 15251 H 1439.88 4.1726 -0.823058 0
M  V30 15252 N 1438.19 0.611994 1.45232 0
M  V30 15253 C 1439.14 -0.104265 2.30564 0
M  V30 15254 C 1440.11 -0.855676 1.42364 0
M  V30 15255 O 1441.29 -0.840534 1.71288 0
M  V30 15256 C 1438.43 -1.09274 3.27343 0
M  V30 15257 C 1437.55 -0.341747 4.30646 0
M  V30 15258 C 1436.68 -1.32034 5.14529 0
M  V30 15259 C 1435.72 -0.557405 6.09557 0
M  V30 15260 N 1434.86 -1.4855 6.86205 0
M  V30 15261 H 1439.7 0.629396 2.91278 0
M  V30 15262 H 1437.23 0.322177 1.43528 0
M  V30 15263 H 1439.19 -1.67902 3.81923 0
M  V30 15264 H 1437.82 -1.79376 2.68373 0
M  V30 15265 H 1436.87 0.360114 3.78692 0
M  V30 15266 H 1438.19 0.253328 4.98156 0
M  V30 15267 H 1437.34 -1.97854 5.73532 0
M  V30 15268 H 1436.08 -1.94934 4.47048 0
M  V30 15269 H 1435.08 0.114401 5.49681 0
M  V30 15270 H 1436.31 0.0666137 6.79067 0
M  V30 15271 H 1434.26 -2.10207 6.21409 0
M  V30 15272 H 1434.17 -0.943972 7.50083 0
M  V30 15273 H 1435.44 -2.13314 7.49745 0
M  V30 15274 N 1439.67 -1.53632 0.351409 0
M  V30 15275 C 1440.58 -2.2899 -0.509985 0
M  V30 15276 C 1441.6 -1.34403 -1.10507 0
M  V30 15277 O 1442.77 -1.67448 -1.11906 0
M  V30 15278 C 1439.84 -3.05392 -1.64124 0
M  V30 15279 C 1438.9 -4.15619 -1.07514 0
M  V30 15280 C 1438.13 -4.88369 -2.15248 0
M  V30 15281 O 1438.35 -4.60854 -3.3611 0
M  V30 15282 O 1437.29 -5.74636 -1.79101 0
M  V30 15283 H 1441.11 -3.03526 0.10283 0
M  V30 15284 H 1438.7 -1.48947 0.116214 0
M  V30 15285 H 1440.58 -3.53146 -2.29926 0
M  V30 15286 H 1439.26 -2.33705 -2.23972 0
M  V30 15287 H 1438.16 -3.7215 -0.381421 0
M  V30 15288 H 1439.5 -4.8943 -0.521413 0
M  V30 15289 N 1441.15 -0.0802183 -1.57396 0
M  V30 15290 C 1442.08 0.913777 -2.10197 0
M  V30 15291 C 1443.09 1.25588 -1.03593 0
M  V30 15292 O 1444.28 1.21159 -1.31083 0
M  V30 15293 C 1441.38 2.2272 -2.55439 0
M  V30 15294 C 1440.55 2.06268 -3.8571 0
M  V30 15295 C 1439.61 3.20989 -4.16956 0
M  V30 15296 O 1438.64 2.95608 -4.8642 0
M  V30 15297 N 1439.84 4.46331 -3.71172 0
M  V30 15298 H 1442.61 0.462908 -2.96103 0
M  V30 15299 H 1440.17 0.105287 -1.61557 0
M  V30 15300 H 1442.16 2.98389 -2.73397 0
M  V30 15301 H 1440.73 2.59278 -1.74624 0
M  V30 15302 H 1439.95 1.15016 -3.77048 0
M  V30 15303 H 1441.24 1.92535 -4.70965 0
M  V30 15304 H 1440.64 4.69837 -3.15071 0
M  V30 15305 H 1439.19 5.18999 -3.94314 0
M  V30 15306 N 1442.63 1.56409 0.193394 0
M  V30 15307 C 1443.56 1.97707 1.24234 0
M  V30 15308 C 1444.54 0.849286 1.47381 0
M  V30 15309 O 1445.72 1.11374 1.59089 0
M  V30 15310 C 1442.85 2.31804 2.5862 0
M  V30 15311 C 1441.81 3.47337 2.50082 0
M  V30 15312 C 1441.13 3.67114 3.88756 0
M  V30 15313 C 1442.43 4.81472 2.02441 0
M  V30 15314 H 1444.13 2.8558 0.89914 0
M  V30 15315 H 1441.67 1.37396 0.431078 0
M  V30 15316 H 1443.62 2.5929 3.32185 0
M  V30 15317 H 1442.35 1.40816 2.94684 0
M  V30 15318 H 1441.01 3.19944 1.78973 0
M  V30 15319 H 1440.66 2.73454 4.22175 0
M  V30 15320 H 1440.36 4.44838 3.83918 0
M  V30 15321 H 1441.88 3.96978 4.6394 0
M  V30 15322 H 1443.29 5.07978 2.65766 0
M  V30 15323 H 1441.69 5.62677 2.08601 0
M  V30 15324 H 1442.76 4.74941 0.977704 0
M  V30 15325 N 1444.1 -0.461169 1.50702 0
M  V30 15326 C 1445.05 -1.5579 1.70288 0
M  V30 15327 C 1446.02 -1.5693 0.544251 0
M  V30 15328 O 1447.21 -1.74308 0.77597 0
M  V30 15329 C 1444.35 -2.93694 1.81212 0
M  V30 15330 C 1443.46 -3.02267 3.0864 0
M  V30 15331 C 1442.59 -4.31147 3.103 0
M  V30 15332 C 1441.63 -4.33498 4.32141 0
M  V30 15333 N 1440.77 -5.53864 4.31484 0
M  V30 15334 H 1445.61 -1.38393 2.63915 0
M  V30 15335 H 1443.15 -0.6727 1.30817 0
M  V30 15336 H 1445.1 -3.73679 1.85526 0
M  V30 15337 H 1443.73 -3.09703 0.91015 0
M  V30 15338 H 1442.79 -2.15093 3.1375 0
M  V30 15339 H 1444.1 -2.99864 3.98601 0
M  V30 15340 H 1443.25 -5.19487 3.13398 0
M  V30 15341 H 1441.99 -4.36172 2.18186 0
M  V30 15342 H 1441 -3.43554 4.29245 0
M  V30 15343 H 1442.22 -4.30156 5.25493 0
M  V30 15344 H 1440.17 -5.59657 3.42229 0
M  V30 15345 H 1440.08 -5.53244 5.15225 0
M  V30 15346 H 1441.35 -6.44302 4.38742 0
M  V30 15347 N 1445.58 -1.40446 -0.715026 0
M  V30 15348 C 1446.54 -1.40506 -1.81082 0
M  V30 15349 C 1447.54 -0.298768 -1.58 0
M  V30 15350 O 1448.73 -0.5577 -1.65031 0
M  V30 15351 C 1445.87 -1.19735 -3.19181 0
M  V30 15352 H 1447.06 -2.38034 -1.82427 0
M  V30 15353 H 1444.61 -1.26303 -0.920718 0
M  V30 15354 H 1445.35 -0.229695 -3.23486 0
M  V30 15355 H 1445.13 -1.99871 -3.37334 0
M  V30 15356 H 1446.62 -1.22566 -3.99208 0
M  V30 15357 N 1447.06 0.947303 -1.25952 0
M  V30 15358 C 1448.31 1.6953 -1.11299 0
M  V30 15359 C 1448.64 1.9113 0.343961 0
M  V30 15360 O 1447.91 1.48755 1.25309 0
M  V30 15361 C 1448.2 3.0738 -1.87588 0
M  V30 15362 C 1448.05 2.93145 -3.41154 0
M  V30 15363 C 1449.37 4.07396 -1.66483 0
M  V30 15364 H 1446.49 0.615281 -0.405707 0
M  V30 15365 H 1449.13 1.10064 -1.54874 0
M  V30 15366 H 1447.28 3.58143 -1.50553 0
M  V30 15367 H 1448.95 2.49651 -3.87907 0
M  V30 15368 H 1447.19 2.28902 -3.68492 0
M  V30 15369 H 1447.87 3.9089 -3.89755 0
M  V30 15370 H 1450.34 3.65572 -1.98738 0
M  V30 15371 H 1449.22 5.01876 -2.22287 0
M  V30 15372 H 1449.48 4.379 -0.607916 0
M  V30 15373 N 1448.54 1.07657 1.15099 0
M  V30 15374 C 1449.47 0.643791 2.18931 0
M  V30 15375 C 1450.45 -0.340546 1.58994 0
M  V30 15376 O 1451.63 -0.24623 1.86885 0
M  V30 15377 C 1448.76 -0.0541901 3.38657 0
M  V30 15378 C 1447.81 0.889081 4.1713 0
M  V30 15379 S 1448.64 2.39173 4.79121 0
M  V30 15380 C 1449.8 1.70563 6.02212 0
M  V30 15381 H 1450.03 1.52342 2.55302 0
M  V30 15382 H 1447.56 0.890824 1.2611 0
M  V30 15383 H 1449.52 -0.45064 4.08019 0
M  V30 15384 H 1448.18 -0.910208 3.00623 0
M  V30 15385 H 1447.37 0.347484 5.02801 0
M  V30 15386 H 1446.98 1.22606 3.53332 0
M  V30 15387 H 1449.27 1.01914 6.69791 0
M  V30 15388 H 1450.21 2.54078 6.60946 0
M  V30 15389 H 1450.62 1.18228 5.51981 0
M  V30 15390 N 1450.02 -1.31994 0.861122 0
M  V30 15391 C 1451.29 -1.91699 0.388705 0
M  V30 15392 C 1451.67 -1.78412 -1.12838 0
M  V30 15393 O 1451.02 -1.18625 -1.95296 0
M  V30 15394 C 1451.23 -3.38232 0.860248 0
M  V30 15395 C 1452.58 -4.15355 0.881201 0
M  V30 15396 O 1453.6 -3.46977 0.805313 0
M  V30 15397 O 1452.46 -5.37468 0.98945 0
M  V30 15398 H 1449.56 -0.819017 0.114629 0
M  V30 15399 H 1452.1 -1.40721 0.94845 0
M  V30 15400 H 1450.87 -3.41876 1.9036 0
M  V30 15401 H 1450.5 -3.96625 0.278316 0
M  V30 15402 N 1451.49 -0.619688 -1.44906 0
M  V30 15403 C 1452.77 -0.0510703 -1.95533 0
M  V30 15404 C 1453.15 1.42013 -1.56191 0
M  V30 15405 O 1452.5 2.12879 -0.830356 0
M  V30 15406 C 1452.71 -0.261896 -3.48016 0
M  V30 15407 C 1454.06 -0.149057 -4.24338 0
M  V30 15408 O 1455.08 -0.192655 -3.55679 0
M  V30 15409 O 1453.94 -0.0443345 -5.46482 0
M  V30 15410 H 1451.03 0.0288461 -0.826497 0
M  V30 15411 H 1453.58 -0.690594 -1.55013 0
M  V30 15412 H 1452.35 -1.28319 -3.69662 0
M  V30 15413 H 1451.98 0.412314 -3.95456 0
M  V30 15414 N 1452.97 1.53444 -0.359552 0
M  V30 15415 C 1454.22 2.01166 0.232022 0
M  V30 15416 C 1454.55 1.24699 1.49266 0
M  V30 15417 O 1453.8 0.327164 1.92946 0
M  V30 15418 C 1454.1 3.5273 0.575863 0
M  V30 15419 C 1453.77 4.47027 -0.589746 0
M  V30 15420 C 1452.43 4.72525 -0.909587 0
M  V30 15421 C 1454.78 5.02846 -1.37095 0
M  V30 15422 C 1452.11 5.51096 -2.01271 0
M  V30 15423 C 1454.46 5.82622 -2.46444 0
M  V30 15424 C 1453.13 6.06409 -2.7897 0
M  V30 15425 H 1452.4 0.73612 0.084903 0
M  V30 15426 H 1455.04 1.85105 -0.490771 0
M  V30 15427 H 1453.35 3.66708 1.37959 0
M  V30 15428 H 1455.04 3.87125 1.04573 0
M  V30 15429 H 1451.63 4.27324 -0.330418 0
M  V30 15430 H 1455.82 4.83098 -1.1371 0
M  V30 15431 H 1451.07 5.67747 -2.26877 0
M  V30 15432 H 1455.25 6.24884 -3.07398 0
M  V30 15433 H 1452.88 6.67077 -3.64572 0
M  V30 15434 N 1454.45 0.0885642 1.57351 0
M  V30 15435 C 1455.41 -0.858178 2.12528 0
M  V30 15436 C 1456.41 -1.21522 1.05304 0
M  V30 15437 O 1457.6 -1.14573 1.3122 0
M  V30 15438 C 1454.74 -2.15619 2.64048 0
M  V30 15439 H 1455.93 -0.37918 2.97493 0
M  V30 15440 H 1453.48 -0.160354 1.55475 0
M  V30 15441 H 1454.22 -2.68018 1.82584 0
M  V30 15442 H 1454 -1.90995 3.42437 0
M  V30 15443 H 1455.49 -2.83359 3.06753 0
M  V30 15444 N 1455.93 -1.56509 -0.185096 0
M  V30 15445 C 1456.89 -1.94468 -1.21305 0
M  V30 15446 C 1457.89 -0.826838 -1.37913 0
M  V30 15447 O 1459.08 -1.09411 -1.35554 0
M  V30 15448 C 1456.21 -2.22747 -2.58063 0
M  V30 15449 H 1457.41 -2.86442 -0.888323 0
M  V30 15450 H 1454.96 -1.50354 -0.427012 0
M  V30 15451 H 1455.69 -1.33443 -2.95573 0
M  V30 15452 H 1455.48 -3.04215 -2.47378 0
M  V30 15453 H 1456.97 -2.53084 -3.32172 0
M  V30 15454 N 1457.41 0.45317 -1.50944 0
M  V30 15455 C 1458.65 1.20389 -1.62827 0
M  V30 15456 C 1458.98 1.91559 -0.336982 0
M  V30 15457 O 1458.24 1.83574 0.678153 0
M  V30 15458 C 1458.54 2.25747 -2.7708 0
M  V30 15459 C 1458.2 1.71703 -4.16928 0
M  V30 15460 C 1456.86 1.56686 -4.54976 0
M  V30 15461 C 1459.22 1.31804 -5.04259 0
M  V30 15462 C 1456.54 1.0022 -5.78077 0
M  V30 15463 C 1458.9 0.767738 -6.27924 0
M  V30 15464 C 1457.56 0.604341 -6.64759 0
M  V30 15465 H 1456.83 0.440536 -0.595827 0
M  V30 15466 H 1459.48 0.497234 -1.84932 0
M  V30 15467 H 1457.78 3.0239 -2.49134 0
M  V30 15468 H 1459.48 2.83625 -2.83475 0
M  V30 15469 H 1456.07 1.84364 -3.86921 0
M  V30 15470 H 1460.25 1.42233 -4.75482 0
M  V30 15471 H 1455.51 0.863228 -6.05275 0
M  V30 15472 H 1459.68 0.449994 -6.94945 0
M  V30 15473 H 1457.31 0.164663 -7.60022 0
M  V30 15474 N 1458.88 1.40823 0.707568 0
M  V30 15475 C 1460.13 1.39741 1.4697 0
M  V30 15476 C 1460.46 0.00231194 1.942 0
M  V30 15477 O 1459.74 -0.967798 1.68713 0
M  V30 15478 C 1460.02 2.39385 2.69011 0
M  V30 15479 C 1459.87 3.87953 2.27624 0
M  V30 15480 C 1461.19 2.3645 3.71186 0
M  V30 15481 H 1458.31 0.508904 0.533091 0
M  V30 15482 H 1460.95 1.72015 0.806888 0
M  V30 15483 H 1459.1 2.11993 3.25563 0
M  V30 15484 H 1460.78 4.26202 1.76492 0
M  V30 15485 H 1459.02 4.03399 1.59537 0
M  V30 15486 H 1459.69 4.53201 3.15139 0
M  V30 15487 H 1462.17 2.60731 3.24282 0
M  V30 15488 H 1461.04 3.08204 4.54204 0
M  V30 15489 H 1461.3 1.3789 4.20046 0
M  V30 15490 N 1460.36 -0.94061 1.26453 0
M  V30 15491 C 1461.27 -2.07298 1.09839 0
M  V30 15492 C 1462.29 -1.73971 0.0317477 0
M  V30 15493 O 1463.46 -2.00017 0.235594 0
M  V30 15494 C 1460.53 -3.38847 0.733736 0
M  V30 15495 C 1459.59 -3.85954 1.87985 0
M  V30 15496 C 1458.82 -5.11224 1.5325 0
M  V30 15497 O 1459.05 -5.68743 0.434491 0
M  V30 15498 O 1457.98 -5.53386 2.36743 0
M  V30 15499 H 1461.81 -2.24222 2.04837 0
M  V30 15500 H 1459.39 -1.05763 1.0552 0
M  V30 15501 H 1461.27 -4.17885 0.543131 0
M  V30 15502 H 1459.95 -3.2316 -0.186843 0
M  V30 15503 H 1458.86 -3.07858 2.12542 0
M  V30 15504 H 1460.19 -4.06162 2.78017 0
M  V30 15505 N 1461.84 -1.08266 -1.14527 0
M  V30 15506 C 1462.79 -0.711332 -2.19565 0
M  V30 15507 C 1463.76 0.301774 -1.63336 0
M  V30 15508 O 1464.94 0.186109 -1.8989 0
M  V30 15509 C 1462.08 -0.125255 -3.44873 0
M  V30 15510 C 1461.2 -1.19096 -4.15259 0
M  V30 15511 C 1460.33 -0.568901 -5.28145 0
M  V30 15512 C 1459.37 -1.61675 -5.90362 0
M  V30 15513 N 1458.51 -1.01659 -6.94701 0
M  V30 15514 H 1463.35 -1.61137 -2.50677 0
M  V30 15515 H 1460.88 -0.805286 -1.231 0
M  V30 15516 H 1462.84 0.232247 -4.16553 0
M  V30 15517 H 1461.47 0.738101 -3.14248 0
M  V30 15518 H 1460.52 -1.66591 -3.41982 0
M  V30 15519 H 1461.84 -1.98508 -4.57598 0
M  V30 15520 H 1460.99 -0.159563 -6.0649 0
M  V30 15521 H 1459.73 0.256884 -4.87023 0
M  V30 15522 H 1458.73 -2.03576 -5.10722 0
M  V30 15523 H 1459.96 -2.44498 -6.33559 0
M  V30 15524 H 1457.9 -0.211872 -6.55658 0
M  V30 15525 H 1457.82 -1.74781 -7.35518 0
M  V30 15526 H 1459.09 -0.63306 -7.76925 0
M  V30 15527 N 1463.32 1.31536 -0.86811 0
M  V30 15528 C 1464.56 1.98573 -0.484592 0
M  V30 15529 C 1464.92 1.6713 0.945066 0
M  V30 15530 O 1466.12 2.27364 1.43384 0
M  V30 15531 C 1464.4 3.49817 -0.732305 0
M  V30 15532 S 1465.95 4.36503 -0.448369 0
M  V30 15533 H 1462.77 0.687584 -0.180969 0
M  V30 15534 H 1465.37 1.59976 -1.12373 0
M  V30 15535 H 1464.08 3.70191 -1.77163 0
M  V30 15536 H 1463.61 3.93318 -0.0800886 0
M  V30 15537 H 1465.62 4.90947 0.720116 0
M  V30 15538 N 1464.8 0.627364 1.44575 0
M  V30 15539 C 1466.04 0.133615 2.03963 0
M  V30 15540 C 1466.4 -1.22005 1.48252 0
M  V30 15541 O 1467.6 -1.80569 1.99118 0
M  V30 15542 C 1465.87 0.115834 3.57212 0
M  V30 15543 S 1467.43 -0.313843 4.37676 0
M  V30 15544 H 1464.25 0.0592399 0.708528 0
M  V30 15545 H 1466.85 0.829908 1.77011 0
M  V30 15546 H 1465.56 1.10422 3.95266 0
M  V30 15547 H 1465.09 -0.601828 3.88769 0
M  V30 15548 H 1467.1 -1.55892 4.71075 0
M  V30 15549 N 1466.28 -1.53251 0.367684 0
M  V30 15550 C 1467.22 -2.258 -0.477802 0
M  V30 15551 C 1468.19 -1.26554 -1.07579 0
M  V30 15552 O 1469.38 -1.5534 -1.10788 0
M  V30 15553 C 1466.52 -3.05216 -1.6105 0
M  V30 15554 C 1465.63 -4.19357 -1.03748 0
M  V30 15555 C 1464.77 -4.86211 -2.13945 0
M  V30 15556 C 1463.8 -5.9238 -1.5412 0
M  V30 15557 N 1462.94 -6.52916 -2.58158 0
M  V30 15558 H 1467.78 -2.97635 0.147367 0
M  V30 15559 H 1465.32 -1.46857 0.084495 0
M  V30 15560 H 1467.28 -3.49536 -2.27772 0
M  V30 15561 H 1465.91 -2.35632 -2.20629 0
M  V30 15562 H 1464.96 -3.79507 -0.260476 0
M  V30 15563 H 1466.27 -4.95645 -0.560105 0
M  V30 15564 H 1465.42 -5.33725 -2.88483 0
M  V30 15565 H 1464.16 -4.09399 -2.65035 0
M  V30 15566 H 1463.17 -5.44225 -0.780968 0
M  V30 15567 H 1464.39 -6.71112 -1.03852 0
M  V30 15568 H 1462.34 -5.78956 -3.08457 0
M  V30 15569 H 1462.26 -7.2475 -2.15113 0
M  V30 15570 H 1463.52 -7.05079 -3.32392 0
M  V30 15571 N 1467.75 -0.0969077 -1.57302 0
M  V30 15572 C 1468.72 0.846895 -2.1298 0
M  V30 15573 C 1469.72 1.20962 -1.05947 0
M  V30 15574 O 1470.91 1.13876 -1.31826 0
M  V30 15575 C 1468.04 2.14215 -2.65188 0
M  V30 15576 H 1469.23 0.363398 -2.9769 0
M  V30 15577 H 1466.78 0.152107 -1.55558 0
M  V30 15578 H 1467.52 2.67046 -1.84002 0
M  V30 15579 H 1467.3 1.89176 -3.43445 0
M  V30 15580 H 1468.79 2.81728 -3.08252 0
M  V30 15581 N 1469.23 1.56605 0.176793 0
M  V30 15582 C 1470.51 1.72546 0.921261 0
M  V30 15583 C 1470.89 0.656794 2.00623 0
M  V30 15584 O 1470.24 -0.329303 2.26115 0
M  V30 15585 C 1470.45 3.15548 1.491 0
M  V30 15586 C 1471.79 3.7634 1.96604 0
M  V30 15587 O 1472.82 3.18791 1.58905 0
M  V30 15588 O 1471.68 4.77377 2.66033 0
M  V30 15589 H 1468.77 0.704425 0.43326 0
M  V30 15590 H 1471.32 1.68895 0.165052 0
M  V30 15591 H 1470.09 3.84808 0.709839 0
M  V30 15592 H 1469.71 3.23502 2.31154 0
M  V30 15593 N 1470.71 -0.445159 1.51182 0
M  V30 15594 C 1471.99 -1.20598 1.53998 0
M  V30 15595 C 1472.37 -2.08962 0.29967 0
M  V30 15596 O 1471.71 -2.17003 -0.715666 0
M  V30 15597 C 1471.92 -2.01461 2.84982 0
M  V30 15598 C 1473.27 -2.5877 3.36635 0
M  V30 15599 O 1474.3 -2.11679 2.86479 0
M  V30 15600 O 1473.16 -3.44637 4.24132 0
M  V30 15601 H 1470.25 -0.548635 0.618812 0
M  V30 15602 H 1472.8 -0.454865 1.6349 0
M  V30 15603 H 1471.57 -1.36511 3.66716 0
M  V30 15604 H 1471.19 -2.83654 2.78615 0
M  V30 15605 N 1472.19 -1.41197 -0.700089 0
M  V30 15606 C 1473.13 -1.42688 -1.81407 0
M  V30 15607 C 1474.1 -0.28182 -1.63692 0
M  V30 15608 O 1475.29 -0.482196 -1.84606 0
M  V30 15609 C 1472.43 -1.31041 -3.19252 0
M  V30 15610 C 1471.54 -2.5538 -3.48432 0
M  V30 15611 C 1470.68 -2.3606 -4.75867 0
M  V30 15612 C 1469.72 -3.55898 -4.97999 0
M  V30 15613 N 1468.85 -3.35676 -6.16657 0
M  V30 15614 H 1473.69 -2.37898 -1.79467 0
M  V30 15615 H 1471.23 -1.18137 -0.87647 0
M  V30 15616 H 1473.19 -1.22292 -3.98874 0
M  V30 15617 H 1471.82 -0.394422 -3.20381 0
M  V30 15618 H 1470.87 -2.74598 -2.6325 0
M  V30 15619 H 1472.18 -3.44535 -3.6069 0
M  V30 15620 H 1471.34 -2.24752 -5.63535 0
M  V30 15621 H 1470.08 -1.44355 -4.65846 0
M  V30 15622 H 1469.08 -3.67665 -4.08781 0
M  V30 15623 H 1470.31 -4.4855 -5.09882 0
M  V30 15624 H 1468.25 -2.46667 -6.07858 0
M  V30 15625 H 1468.17 -4.18404 -6.29662 0
M  V30 15626 H 1469.44 -3.28132 -7.07071 0
M  V30 15627 N 1473.67 0.933891 -1.2695 0
M  V30 15628 C 1474.58 2.06713 -1.10936 0
M  V30 15629 C 1475.59 1.73952 -0.0409734 0
M  V30 15630 O 1476.77 1.9989 -0.246199 0
M  V30 15631 C 1473.83 3.38453 -0.751696 0
M  V30 15632 C 1472.89 3.84951 -1.90029 0
M  V30 15633 C 1472.13 5.10404 -1.55959 0
M  V30 15634 O 1472.35 5.68504 -0.464646 0
M  V30 15635 O 1471.28 5.52123 -2.39675 0
M  V30 15636 H 1475.11 2.23133 -2.06023 0
M  V30 15637 H 1472.69 1.05202 -1.06079 0
M  V30 15638 H 1474.58 4.17591 -0.565285 0
M  V30 15639 H 1473.25 3.23255 0.169703 0
M  V30 15640 H 1472.16 3.06727 -2.14172 0
M  V30 15641 H 1473.49 4.04681 -2.80167 0
M  V30 15642 N 1475.14 1.08871 1.13951 0
M  V30 15643 C 1476.37 0.842913 1.88951 0
M  V30 15644 C 1476.79 -0.605348 1.78832 0
M  V30 15645 O 1476.14 -1.41631 1.15095 0
M  V30 15646 C 1476.19 1.26198 3.38757 0
M  V30 15647 O 1475.92 2.65344 3.48603 0
M  V30 15648 C 1477.42 1.04773 4.30741 0
M  V30 15649 H 1474.64 0.303651 0.598362 0
M  V30 15650 H 1477.18 1.44922 1.44284 0
M  V30 15651 H 1475.34 0.699682 3.81029 0
M  V30 15652 H 1475.75 2.82863 4.41688 0
M  V30 15653 H 1477.22 1.39029 5.34205 0
M  V30 15654 H 1477.7 -0.0149046 4.39197 0
M  V30 15655 H 1478.31 1.5957 3.9423 0
M  V30 15656 N 1476.62 -1.31073 0.875073 0
M  V30 15657 C 1477.86 -1.98313 0.495116 0
M  V30 15658 C 1478.23 -1.67629 -0.93619 0
M  V30 15659 O 1479.43 -2.28122 -1.42176 0
M  V30 15660 C 1477.7 -3.49424 0.750847 0
M  V30 15661 S 1479.26 -4.36259 0.471512 0
M  V30 15662 H 1476.07 -0.686614 0.184613 0
M  V30 15663 H 1478.68 -1.59378 1.1322 0
M  V30 15664 H 1477.38 -3.69246 1.79124 0
M  V30 15665 H 1476.91 -3.9327 0.100946 0
M  V30 15666 H 1478.93 -4.91322 -0.69407 0
M  V30 15667 N 1478.1 -0.635022 -1.4424 0
M  V30 15668 C 1479.35 -0.141067 -2.02008 0
M  V30 15669 C 1479.68 1.23849 -1.49973 0
M  V30 15670 O 1478.93 1.83666 -0.675673 0
M  V30 15671 C 1479.23 -0.081191 -3.57308 0
M  V30 15672 C 1478.9 -1.40004 -4.28614 0
M  V30 15673 C 1477.56 -1.76125 -4.4781 0
M  V30 15674 C 1479.91 -2.27041 -4.6915 0
M  V30 15675 C 1477.24 -2.98982 -5.04804 0
M  V30 15676 C 1479.59 -3.49173 -5.27504 0
M  V30 15677 C 1478.25 -3.85512 -5.44919 0
M  V30 15678 H 1477.52 -0.05162 -0.7392 0
M  V30 15679 H 1480.17 -0.822112 -1.72955 0
M  V30 15680 H 1478.48 0.68324 -3.85797 0
M  V30 15681 H 1480.17 0.317584 -3.9974 0
M  V30 15682 H 1476.76 -1.10897 -4.14005 0
M  V30 15683 H 1480.95 -2.0043 -4.54028 0
M  V30 15684 H 1476.2 -3.27208 -5.16473 0
M  V30 15685 H 1480.38 -4.16847 -5.57864 0
M  V30 15686 H 1478 -4.80793 -5.88848 0
M  V30 15687 N 1479.58 1.53054 -0.375806 0
M  V30 15688 C 1480.54 2.24666 0.453608 0
M  V30 15689 C 1481.54 1.25816 1.00135 0
M  V30 15690 O 1482.73 1.50016 0.885481 0
M  V30 15691 C 1479.86 2.99131 1.63503 0
M  V30 15692 H 1481.06 2.994 -0.173172 0
M  V30 15693 H 1478.61 1.55778 -0.127673 0
M  V30 15694 H 1479.34 2.28666 2.29962 0
M  V30 15695 H 1479.13 3.71671 1.24913 0
M  V30 15696 H 1480.62 3.53542 2.22256 0
M  V30 15697 N 1481.06 0.105248 1.57248 0
M  V30 15698 C 1481.97 -0.864007 2.1811 0
M  V30 15699 C 1482.98 -1.30282 1.15337 0
M  V30 15700 O 1484.16 -1.36864 1.4775 0
M  V30 15701 C 1481.22 -2.1014 2.75757 0
M  V30 15702 C 1480.28 -1.71583 3.9352 0
M  V30 15703 C 1479.52 -2.89424 4.48408 0
M  V30 15704 O 1479.74 -4.04449 4.02215 0
M  V30 15705 O 1478.67 -2.67303 5.39289 0
M  V30 15706 H 1482.5 -0.376131 3.01362 0
M  V30 15707 H 1480.09 -0.119643 1.4892 0
M  V30 15708 H 1481.97 -2.82638 3.1256 0
M  V30 15709 H 1480.64 -2.57961 1.95545 0
M  V30 15710 H 1479.55 -0.962347 3.6151 0
M  V30 15711 H 1480.88 -1.28517 4.75126 0
M  V30 15712 N 1482.53 -1.56697 -0.168486 0
M  V30 15713 C 1483.44 -1.99866 -1.22845 0
M  V30 15714 C 1484.46 -0.910491 -1.48277 0
M  V30 15715 O 1485.64 -1.21834 -1.6037 0
M  V30 15716 C 1482.7 -2.35227 -2.54694 0
M  V30 15717 C 1481.76 -3.57886 -2.37099 0
M  V30 15718 C 1481 -3.91551 -3.62661 0
M  V30 15719 O 1481.22 -3.26148 -4.67957 0
M  V30 15720 O 1480.15 -4.8489 -3.56603 0
M  V30 15721 H 1483.98 -2.90305 -0.892015 0
M  V30 15722 H 1481.56 -1.44602 -0.375571 0
M  V30 15723 H 1483.45 -2.58928 -3.32467 0
M  V30 15724 H 1482.12 -1.4795 -2.87911 0
M  V30 15725 H 1481.03 -3.394 -1.57348 0
M  V30 15726 H 1482.36 -4.45714 -2.08806 0
M  V30 15727 N 1484.01 0.437135 -1.51416 0
M  V30 15728 C 1485.26 1.18421 -1.63771 0
M  V30 15729 C 1485.58 1.91718 -0.356282 0
M  V30 15730 O 1484.85 1.85566 0.627863 0
M  V30 15731 H 1483.43 0.440125 -0.603572 0
M  V30 15732 H 1486.09 0.501155 -1.88347 0
M  V30 15733 H 1485.19 1.91367 -2.46546 0
M  V30 15734 N 1485.49 1.41566 0.692592 0
M  V30 15735 C 1486.44 1.43648 1.80648 0
M  V30 15736 C 1487.41 0.290497 1.6354 0
M  V30 15737 O 1488.59 0.491979 1.84348 0
M  V30 15738 C 1485.73 1.32733 3.18553 0
M  V30 15739 C 1484.85 2.57224 3.47073 0
M  V30 15740 C 1483.98 2.38581 4.74608 0
M  V30 15741 C 1483.02 3.58534 4.96105 0
M  V30 15742 N 1482.16 3.38942 6.14868 0
M  V30 15743 H 1487 2.38847 1.78203 0
M  V30 15744 H 1484.53 1.186 0.870193 0
M  V30 15745 H 1486.49 1.24405 3.9822 0
M  V30 15746 H 1485.12 0.411407 3.20168 0
M  V30 15747 H 1484.17 2.7599 2.6179 0
M  V30 15748 H 1485.49 3.46443 3.58858 0
M  V30 15749 H 1484.64 2.27738 5.62335 0
M  V30 15750 H 1483.38 1.46824 4.65074 0
M  V30 15751 H 1482.38 3.69828 4.06826 0
M  V30 15752 H 1483.61 4.51248 5.07496 0
M  V30 15753 H 1481.55 2.49887 6.06541 0
M  V30 15754 H 1481.47 4.21737 6.27434 0
M  V30 15755 H 1482.74 3.31877 7.05321 0
M  V30 15756 N 1486.97 -0.927146 1.27443 0
M  V30 15757 C 1487.92 -2.02783 1.10216 0
M  V30 15758 C 1488.89 -1.661 0.00307842 0
M  V30 15759 O 1490.07 -1.90081 0.165508 0
M  V30 15760 C 1487.21 -3.36718 0.755984 0
M  V30 15761 C 1486.32 -3.86353 1.93276 0
M  V30 15762 C 1485.46 -5.08737 1.52841 0
M  V30 15763 C 1484.5 -5.50669 2.67263 0
M  V30 15764 N 1483.63 -6.6425 2.27413 0
M  V30 15765 H 1488.47 -2.16851 2.04401 0
M  V30 15766 H 1486.01 -1.06232 1.0175 0
M  V30 15767 H 1487.97 -4.13741 0.53609 0
M  V30 15768 H 1486.6 -3.22456 -0.148909 0
M  V30 15769 H 1485.65 -3.05604 2.26518 0
M  V30 15770 H 1486.96 -4.13401 2.79108 0
M  V30 15771 H 1486.12 -5.93263 1.26979 0
M  V30 15772 H 1484.86 -4.83467 0.641187 0
M  V30 15773 H 1483.86 -4.64692 2.93839 0
M  V30 15774 H 1485.09 -5.77934 3.56607 0
M  V30 15775 H 1483.03 -6.40636 1.41143 0
M  V30 15776 H 1482.95 -6.90955 3.06784 0
M  V30 15777 H 1484.22 -7.52115 2.048 0
M  V30 15778 N 1488.45 -1.09474 -1.13372 0
M  V30 15779 C 1489.38 -0.756441 -2.20908 0
M  V30 15780 C 1490.36 0.266113 -1.68006 0
M  V30 15781 O 1491.54 0.134067 -1.93737 0
M  V30 15782 C 1488.67 -0.176733 -3.4685 0
M  V30 15783 C 1487.63 -1.12886 -4.12845 0
M  V30 15784 C 1486.95 -0.410831 -5.33119 0
M  V30 15785 C 1488.25 -2.47148 -4.60125 0
M  V30 15786 H 1489.95 -1.65555 -2.49463 0
M  V30 15787 H 1487.49 -0.797458 -1.19902 0
M  V30 15788 H 1489.45 0.0720151 -4.21338 0
M  V30 15789 H 1488.17 0.757576 -3.17692 0
M  V30 15790 H 1486.83 -1.36289 -3.40325 0
M  V30 15791 H 1486.48 0.527632 -5.00225 0
M  V30 15792 H 1486.18 -1.04567 -5.78221 0
M  V30 15793 H 1487.7 -0.170394 -6.10362 0
M  V30 15794 H 1489.11 -2.27949 -5.26034 0
M  V30 15795 H 1487.51 -3.06425 -5.15969 0
M  V30 15796 H 1488.58 -3.07874 -3.74622 0
M  V30 15797 N 1489.92 1.30607 -0.882012 0
M  V30 15798 C 1491.17 1.96547 -0.499703 0
M  V30 15799 C 1491.5 1.69484 0.948098 0
M  V30 15800 O 1490.78 0.997929 1.66948 0
M  V30 15801 C 1491.06 3.51735 -0.771662 0
M  V30 15802 C 1490.91 3.88326 -2.26987 0
M  V30 15803 C 1492.23 4.39411 -0.246178 0
M  V30 15804 H 1489.35 0.713912 -0.183026 0
M  V30 15805 H 1491.99 1.5453 -1.10546 0
M  V30 15806 H 1490.14 3.87655 -0.256092 0
M  V30 15807 H 1491.82 3.62444 -2.85362 0
M  V30 15808 H 1490.06 3.36501 -2.7377 0
M  V30 15809 H 1490.73 4.96574 -2.41078 0
M  V30 15810 H 1493.21 4.10382 -0.687419 0
M  V30 15811 H 1492.08 5.4692 -0.465817 0
M  V30 15812 H 1492.34 4.33804 0.852452 0
M  V30 15813 N 1491.4 0.642663 1.43901 0
M  V30 15814 C 1492.37 -0.0457858 2.29154 0
M  V30 15815 C 1493.37 -0.760988 1.41653 0
M  V30 15816 O 1494.56 -0.603832 1.634 0
M  V30 15817 C 1491.69 -1.07552 3.23489 0
M  V30 15818 H 1492.88 0.704193 2.91515 0
M  V30 15819 H 1490.43 0.403361 1.51006 0
M  V30 15820 H 1491.17 -1.85509 2.66002 0
M  V30 15821 H 1490.95 -0.566468 3.87987 0
M  V30 15822 H 1492.44 -1.55663 3.87503 0
M  V30 15823 N 1492.88 -1.52852 0.383918 0
M  V30 15824 C 1493.84 -2.24904 -0.441687 0
M  V30 15825 C 1494.84 -1.26345 -0.99466 0
M  V30 15826 O 1496.03 -1.50484 -0.877513 0
M  V30 15827 C 1493.17 -2.99994 -1.61915 0
M  V30 15828 H 1494.36 -2.99304 0.189047 0
M  V30 15829 H 1491.91 -1.55708 0.135932 0
M  V30 15830 H 1492.65 -2.29882 -2.28746 0
M  V30 15831 H 1492.43 -3.72328 -1.2294 0
M  V30 15832 H 1493.92 -3.54716 -2.20378 0
M  V30 15833 N 1494.36 -0.113586 -1.5719 0
M  V30 15834 C 1495.58 0.556928 -1.99783 0
M  V30 15835 C 1496.01 1.59774 -0.992669 0
M  V30 15836 O 1495.37 1.81263 0.0363821 0
M  V30 15837 C 1495.42 1.16463 -3.41275 0
M  V30 15838 O 1494.52 2.28024 -3.43626 0
M  V30 15839 H 1493.86 0.139628 -0.649153 0
M  V30 15840 H 1496.39 -0.200462 -2.03616 0
M  V30 15841 H 1496.4 1.50147 -3.79368 0
M  V30 15842 H 1495.08 0.402232 -4.1395 0
M  V30 15843 H 1493.65 1.9582 -3.17347 0
M  V30 15844 N 1495.84 1.56784 0.160173 0
M  V30 15845 C 1496.77 1.93848 1.22293 0
M  V30 15846 C 1497.78 0.832803 1.39886 0
M  V30 15847 O 1498.97 1.11124 1.39692 0
M  V30 15848 C 1496.07 2.18581 2.58989 0
M  V30 15849 C 1495.24 3.49839 2.62548 0
M  V30 15850 C 1494.3 3.63268 3.80687 0
M  V30 15851 O 1493.33 4.35785 3.6617 0
M  V30 15852 N 1494.53 2.98948 4.97605 0
M  V30 15853 H 1497.3 2.85614 0.908004 0
M  V30 15854 H 1494.86 1.58075 0.349851 0
M  V30 15855 H 1496.85 2.24819 3.36509 0
M  V30 15856 H 1495.42 1.33145 2.82827 0
M  V30 15857 H 1494.64 3.5516 1.7104 0
M  V30 15858 H 1495.93 4.3619 2.61945 0
M  V30 15859 H 1495.33 2.39924 5.12302 0
M  V30 15860 H 1493.88 3.10765 5.72947 0
M  V30 15861 N 1497.32 -0.429099 1.51646 0
M  V30 15862 C 1498.28 -1.50398 1.72954 0
M  V30 15863 C 1499.28 -1.49207 0.599491 0
M  V30 15864 O 1500.47 -1.51084 0.867143 0
M  V30 15865 C 1497.6 -2.89903 1.79358 0
M  V30 15866 H 1498.79 -1.32805 2.68892 0
M  V30 15867 H 1496.35 -0.658313 1.4176 0
M  V30 15868 H 1497.08 -3.12891 0.852639 0
M  V30 15869 H 1496.87 -2.92171 2.61492 0
M  V30 15870 H 1498.36 -3.67862 1.97654 0
M  V30 15871 N 1498.79 -1.41931 -0.685074 0
M  V30 15872 C 1499.76 -1.44315 -1.78061 0
M  V30 15873 C 1500.76 -0.332215 -1.57331 0
M  V30 15874 O 1501.95 -0.59258 -1.63811 0
M  V30 15875 C 1499.08 -1.26479 -3.16569 0
M  V30 15876 H 1500.27 -2.4185 -1.77337 0
M  V30 15877 H 1497.82 -1.28228 -0.893721 0
M  V30 15878 H 1498.56 -0.298259 -3.22926 0
M  V30 15879 H 1498.34 -2.06981 -3.33018 0
M  V30 15880 H 1499.83 -1.31006 -3.96519 0
M  V30 15881 N 1500.27 0.920374 -1.27933 0
M  V30 15882 C 1501.2 2.03882 -1.13817 0
M  V30 15883 C 1502.18 1.70058 -0.0376853 0
M  V30 15884 O 1503.37 1.93023 -0.213492 0
M  V30 15885 C 1500.5 3.38142 -0.792296 0
M  V30 15886 C 1499.45 3.86104 -1.84683 0
M  V30 15887 C 1498.78 5.17253 -1.35474 0
M  V30 15888 C 1500.08 4.0869 -3.25223 0
M  V30 15889 H 1501.77 2.15949 -2.07379 0
M  V30 15890 H 1499.32 1.03764 -0.998454 0
M  V30 15891 H 1501.27 4.15872 -0.680337 0
M  V30 15892 H 1499.99 3.26109 0.179029 0
M  V30 15893 H 1498.65 3.10573 -1.94782 0
M  V30 15894 H 1498.3 5.01618 -0.372666 0
M  V30 15895 H 1498 5.50314 -2.05982 0
M  V30 15896 H 1499.53 5.97545 -1.25587 0
M  V30 15897 H 1500.94 4.76965 -3.18083 0
M  V30 15898 H 1499.34 4.5307 -3.93507 0
M  V30 15899 H 1500.41 3.13729 -3.69733 0
M  V30 15900 N 1501.75 1.10074 1.1279 0
M  V30 15901 C 1503 0.839212 1.83852 0
M  V30 15902 C 1503.32 -0.637023 1.84301 0
M  V30 15903 O 1502.59 -1.46239 1.30349 0
M  V30 15904 H 1501.17 0.307468 0.680788 0
M  V30 15905 H 1503.83 1.39025 1.36595 0
M  V30 15906 H 1502.93 1.19872 2.88162 0
M  V30 15907 N 1503.23 -1.30138 0.888926 0
M  V30 15908 C 1504.16 -2.3047 0.374934 0
M  V30 15909 C 1505.14 -1.61156 -0.544322 0
M  V30 15910 O 1506.32 -1.88738 -0.457337 0
M  V30 15911 C 1503.45 -3.44896 -0.407935 0
M  V30 15912 C 1502.41 -4.25935 0.419916 0
M  V30 15913 C 1501.73 -5.32452 -0.489797 0
M  V30 15914 C 1503.03 -4.9508 1.66413 0
M  V30 15915 H 1504.73 -2.73711 1.21337 0
M  V30 15916 H 1502.27 -1.31586 0.584899 0
M  V30 15917 H 1504.23 -4.14153 -0.778177 0
M  V30 15918 H 1502.95 -3.0047 -1.28005 0
M  V30 15919 H 1501.61 -3.58372 0.772348 0
M  V30 15920 H 1501.26 -4.84273 -1.35974 0
M  V30 15921 H 1500.96 -5.87569 0.0603412 0
M  V30 15922 H 1502.48 -6.04563 -0.856468 0
M  V30 15923 H 1503.9 -5.56831 1.36425 0
M  V30 15924 H 1502.29 -5.6008 2.15477 0
M  V30 15925 H 1503.36 -4.20981 2.4063 0
M  V30 15926 O 1504.74 -0.789908 -1.40864 0
M  V30 15927 H 1505.44 -0.360236 -1.90321 0
M  V30 END ATOM
M  V30 BEGIN BOND
M  V30 END BOND
M  V30 END CTAB
M  END
$$$$
