drugbank_target|P29597 Non-receptor tyrosine-protein kinase TYK2 (DB04716; DB08895; DB12010)
 OpenBabel12092120473D

  0  0  0     0  0            999 V3000
M  V30 BEGIN CTAB
M  V30 COUNTS 18680 18932 0 0 0
M  V30 BEGIN ATOM
M  V30 1 H -0.908 1.98254 -0.117106 0
M  V30 2 N 0 1.576 0 0
M  V30 3 C 0.933 2.03868 1.02534 0
M  V30 4 C 1.911 0.928543 1.3348 0
M  V30 5 O 3.095 1.19667 1.45644 0
M  V30 6 C 0.222 2.43627 2.35294 0
M  V30 7 C -0.732 3.65373 2.2001 0
M  V30 8 S 0.101 5.13292 1.52614 0
M  V30 9 C 1.257 5.56322 2.86805 0
M  V30 10 H 1.49 2.90518 0.631377 0
M  V30 11 H -0.977 1.52953 0.210867 0
M  V30 12 H 0.981 2.67203 3.11629 0
M  V30 13 H -0.358 1.57376 2.7183 0
M  V30 14 H -1.165 3.90944 3.18086 0
M  V30 15 H -1.563 3.418 1.51819 0
M  V30 16 H 0.729 5.58782 3.83104 0
M  V30 17 H 1.672 6.56266 2.65933 0
M  V30 18 H 2.08 4.83886 2.90714 0
M  V30 19 N 1.4781 -0.272755 1.55222 0
M  V30 20 C 2.8891 -0.84378 1.66545 0
M  V30 21 C 3.2401 -1.87035 0.592641 0
M  V30 22 O 2.3651 -2.14761 -0.265818 0
M  V30 23 C 2.9601 -1.53723 3.01918 0
M  V30 24 C 1.5191 -2.05628 3.15268 0
M  V30 25 C 0.6661 -0.898424 2.62343 0
M  V30 26 H 3.6171 -0.0490998 1.58624 0
M  V30 27 H 3.6381 -2.40421 2.94921 0
M  V30 28 H 3.1501 -0.78983 3.79978 0
M  V30 29 H 1.2511 -2.83329 2.41983 0
M  V30 30 H 1.3641 -2.27142 4.21833 0
M  V30 31 H -0.2719 -1.29186 2.19506 0
M  V30 32 H 0.5111 -0.164528 3.42906 0
M  V30 33 N 2.9562 -1.48159 -0.537278 0
M  V30 34 C 3.8862 -1.65029 -1.6519 0
M  V30 35 C 4.8672 -0.499281 -1.62607 0
M  V30 36 O 6.0522 -0.730972 -1.79918 0
M  V30 37 C 3.1822 -1.68303 -3.03795 0
M  V30 38 C 2.1362 -2.8283 -3.21234 0
M  V30 39 C 1.4622 -2.71189 -4.60826 0
M  V30 40 C 2.7622 -4.24211 -3.04701 0
M  V30 41 H 4.4562 -2.58341 -1.51328 0
M  V30 42 H 2.0022 -1.24325 -0.726585 0
M  V30 43 H 3.9552 -1.78693 -3.81637 0
M  V30 44 H 2.6792 -0.715635 -3.18663 0
M  V30 45 H 1.3382 -2.71983 -2.45807 0
M  V30 46 H 0.9862 -1.72435 -4.7252 0
M  V30 47 H 0.6862 -3.48035 -4.7344 0
M  V30 48 H 2.2102 -2.83537 -5.40777 0
M  V30 49 H 3.6242 -4.3593 -3.72341 0
M  V30 50 H 2.0212 -5.01998 -3.28813 0
M  V30 51 H 3.0912 -4.41184 -2.01209 0
M  V30 52 N 4.4343 0.785586 -1.36625 0
M  V30 53 C 5.8503 1.08419 -1.17122 0
M  V30 54 C 6.0503 2.015 0.00208491 0
M  V30 55 O 5.1063 2.43551 0.666278 0
M  V30 56 C 6.4193 1.69498 -2.48377 0
M  V30 57 C 7.9673 1.81821 -2.54775 0
M  V30 58 C 8.4423 2.46315 -3.86126 0
M  V30 59 N 9.9333 2.53779 -3.87492 0
M  V30 60 C 10.6683 3.045 -4.85868 0
M  V30 61 N 10.1643 3.55499 -5.94637 0
M  V30 62 N 11.9573 3.03247 -4.73284 0
M  V30 63 H 4.1083 0.167264 -2.1174 0
M  V30 64 H 6.3713 0.13682 -0.938075 0
M  V30 65 H 6.0773 1.08571 -3.34522 0
M  V30 66 H 5.9513 2.6896 -2.64462 0
M  V30 67 H 8.3383 2.41884 -1.69045 0
M  V30 68 H 8.4193 0.811532 -2.42586 0
M  V30 69 H 8.0633 1.86895 -4.72263 0
M  V30 70 H 7.9933 3.47561 -3.95612 0
M  V30 71 H 10.4843 2.17672 -3.08913 0
M  V30 72 H 10.7973 3.92562 -6.65669 0
M  V30 73 H 9.1423 3.5364 -5.98301 0
M  V30 74 H 12.3333 2.62696 -3.87438 0
M  V30 75 H 12.5063 3.42467 -5.50109 0
M  V30 76 N 5.9124 1.20967 1.01018 0
M  V30 77 C 6.8624 0.93182 2.08089 0
M  V30 78 C 7.8464 -0.110898 1.60517 0
M  V30 79 O 9.0384 0.0973392 1.76732 0
M  V30 80 C 6.1674 0.492719 3.39746 0
M  V30 81 C 5.2534 1.56922 3.94 0
M  V30 82 N 5.6444 2.79312 4.21686 0
M  V30 83 C 3.9424 1.43688 4.2222 0
M  V30 84 C 4.6434 3.48797 4.65527 0
M  V30 85 N 3.6194 2.76224 4.68189 0
M  V30 86 H 7.4214 1.86175 2.27412 0
M  V30 87 H 4.9354 1.10463 1.19045 0
M  V30 88 H 6.9324 0.275044 4.15992 0
M  V30 89 H 5.5924 -0.430509 3.21833 0
M  V30 90 H 6.6034 3.15903 4.10397 0
M  V30 91 H 3.2804 0.578548 4.13472 0
M  V30 92 H 4.6704 4.53561 4.95714 0
M  V30 93 N 7.3905 -1.2043 1.01659 0
M  V30 94 C 8.6365 -1.90356 0.716674 0
M  V30 95 C 8.9915 -1.77367 -0.745557 0
M  V30 96 O 8.2845 -1.1471 -1.53467 0
M  V30 97 C 8.4785 -3.40464 1.08714 0
M  V30 98 C 8.3075 -3.6806 2.58384 0
M  V30 99 C 7.0775 -3.86775 3.25167 0
M  V30 100 C 9.2755 -3.70623 3.56572 0
M  V30 101 N 7.2575 -4.01889 4.64067 0
M  V30 102 C 8.6285 -3.91161 4.81034 0
M  V30 103 C 10.6835 -3.53586 3.50544 0
M  V30 104 C 9.3865 -3.96428 6.00198 0
M  V30 105 C 11.4125 -3.60125 4.6911 0
M  V30 106 C 10.7745 -3.81135 5.92381 0
M  V30 107 H 6.8735 -0.716226 0.313918 0
M  V30 108 H 9.4575 -1.44815 1.30141 0
M  V30 109 H 7.6285 -3.84757 0.530745 0
M  V30 110 H 9.3605 -3.97863 0.740763 0
M  V30 111 H 6.1155 -3.85156 2.75594 0
M  V30 112 H 6.5395 -4.13323 5.36184 0
M  V30 113 H 11.1815 -3.36308 2.56235 0
M  V30 114 H 8.8995 -4.12502 6.94887 0
M  V30 115 H 12.4855 -3.4825 4.66062 0
M  V30 116 H 11.3655 -3.86054 6.82592 0
M  V30 117 N 8.8686 -0.792821 -1.36206 0
M  V30 118 C 10.1166 -0.366062 -1.98757 0
M  V30 119 C 10.4376 1.0668 -1.63231 0
M  V30 120 O 9.7076 1.73587 -0.907978 0
M  V30 121 H 8.2876 -0.132364 -0.735179 0
M  V30 122 H 10.9496 -1.01562 -1.66347 0
M  V30 123 H 10.0456 -0.460638 -3.08682 0
M  V30 124 N 10.3467 1.47872 -0.545128 0
M  V30 125 C 11.2797 2.2675 0.256885 0
M  V30 126 C 12.2577 1.33293 0.931228 0
M  V30 127 O 13.4417 1.62657 0.95262 0
M  V30 128 C 10.5687 3.09976 1.36501 0
M  V30 129 C 9.6147 4.1892 0.800496 0
M  V30 130 S 10.4477 5.34397 -0.343505 0
M  V30 131 C 11.6037 6.21186 0.766733 0
M  V30 132 H 11.8367 2.94425 -0.412479 0
M  V30 133 H 9.3697 1.50806 -0.331204 0
M  V30 134 H 11.3277 3.585 1.9997 0
M  V30 135 H 9.9887 2.41686 2.00616 0
M  V30 136 H 9.1817 4.76836 1.63227 0
M  V30 137 H 8.7837 3.73215 0.242217 0
M  V30 138 H 11.0757 6.56804 1.66178 0
M  V30 139 H 12.0187 7.07742 0.225204 0
M  V30 140 H 12.4267 5.54574 1.05396 0
M  V30 141 N 11.8248 0.280983 1.55075 0
M  V30 142 C 12.7878 -0.590896 2.21452 0
M  V30 143 C 13.7878 -1.07682 1.19421 0
M  V30 144 O 14.9778 -0.97605 1.44288 0
M  V30 145 C 12.1098 -1.81587 2.88511 0
M  V30 146 H 13.3028 -0.0112554 2.99898 0
M  V30 147 H 10.8558 0.0316438 1.56268 0
M  V30 148 H 11.5908 -2.43587 2.14093 0
M  V30 149 H 11.3758 -1.4753 3.63287 0
M  V30 150 H 12.8658 -2.43575 3.39206 0
M  V30 151 N 13.3029 -1.57598 0.00835791 0
M  V30 152 C 14.7189 -1.55764 -0.347822 0
M  V30 153 C 14.9189 -1.01186 -1.74252 0
M  V30 154 O 13.9749 -0.649371 -2.44007 0
M  V30 155 C 15.2879 -2.99927 -0.215407 0
M  V30 156 C 16.8359 -3.11656 -0.289725 0
M  V30 157 C 17.3109 -4.57621 -0.18634 0
M  V30 158 N 18.8019 -4.62557 -0.243978 0
M  V30 159 C 19.5369 -5.73094 -0.18745 0
M  V30 160 N 19.0329 -6.92753 -0.0810331 0
M  V30 161 N 20.8259 -5.61588 -0.239925 0
M  V30 162 H 12.9769 -1.91411 0.92062 0
M  V30 163 H 15.2399 -0.879562 0.353659 0
M  V30 164 H 14.9459 -3.43729 0.744512 0
M  V30 165 H 14.8199 -3.63865 -0.994097 0
M  V30 166 H 17.2069 -2.67779 -1.24009 0
M  V30 167 H 17.2879 -2.5048 0.51898 0
M  V30 168 H 16.9319 -5.02174 0.760519 0
M  V30 169 H 16.8619 -5.16752 -1.01364 0
M  V30 170 H 19.3529 -3.76481 -0.327217 0
M  V30 171 H 19.6659 -7.72787 -0.0440241 0
M  V30 172 H 18.0109 -6.94984 -0.0465419 0
M  V30 173 H 21.2019 -4.66996 -0.321317 0
M  V30 174 H 21.3749 -6.47714 -0.192407 0
M  V30 175 N 14.781 0.264519 -1.55364 0
M  V30 176 C 16.029 0.993021 -1.76021 0
M  V30 177 C 16.35 1.86511 -0.569099 0
M  V30 178 O 15.62 1.91438 0.415735 0
M  V30 179 H 14.2 0.369639 -0.649135 0
M  V30 180 H 16.862 0.286707 -1.9278 0
M  V30 181 H 15.958 1.62502 -2.66457 0
M  V30 182 N 16.2591 1.48442 0.529413 0
M  V30 183 C 17.4841 1.60406 1.31471 0
M  V30 184 C 17.9091 0.264738 1.86228 0
M  V30 185 O 17.2671 -0.763668 1.64432 0
M  V30 186 C 17.3151 2.65419 2.44101 0
M  V30 187 O 16.4191 2.22618 3.47153 0
M  V30 188 H 15.7601 0.537863 0.389357 0
M  V30 189 H 18.2901 1.94432 0.636965 0
M  V30 190 H 18.3001 2.86709 2.90279 0
M  V30 191 H 16.9751 3.62652 2.03608 0
M  V30 192 H 15.5521 2.11543 3.0709 0
M  V30 193 N 17.7372 -0.778329 1.37039 0
M  V30 194 C 18.6842 -1.89139 1.32269 0
M  V30 195 C 19.6542 -1.65017 0.189387 0
M  V30 196 O 20.8392 -1.87024 0.377693 0
M  V30 197 C 17.9792 -3.26112 1.12894 0
M  V30 198 C 17.0922 -3.62233 2.35396 0
M  V30 199 C 16.2272 -4.8838 2.08946 0
M  V30 200 C 15.2662 -5.17212 3.2735 0
M  V30 201 N 14.4032 -6.34546 3.00492 0
M  V30 202 H 19.2432 -1.92552 2.27437 0
M  V30 203 H 16.7802 -0.941473 1.13025 0
M  V30 204 H 18.7382 -4.05116 0.996835 0
M  V30 205 H 17.3682 -3.22091 0.213758 0
M  V30 206 H 16.4202 -2.78265 2.5937 0
M  V30 207 H 17.7322 -3.79481 3.23721 0
M  V30 208 H 16.8862 -5.75274 1.92729 0
M  V30 209 H 15.6252 -4.73222 1.17949 0
M  V30 210 H 14.6302 -4.28796 3.44113 0
M  V30 211 H 15.8552 -5.34283 4.19188 0
M  V30 212 H 13.8012 -6.20759 2.12118 0
M  V30 213 H 13.7182 -6.52179 3.82358 0
M  V30 214 H 14.9862 -7.24394 2.87879 0
M  V30 215 N 19.2153 -1.21501 -1.00376 0
M  V30 216 C 20.6263 -1.03146 -1.55621 0
M  V30 217 C 20.9773 0.408375 -1.91903 0
M  V30 218 O 20.1023 1.29177 -1.73616 0
M  V30 219 C 20.6973 -1.86612 -2.82775 0
M  V30 220 C 19.2563 -1.72586 -3.34501 0
M  V30 221 C 18.4033 -1.83747 -2.07683 0
M  V30 222 H 21.3543 -1.35505 -0.826081 0
M  V30 223 H 21.3753 -1.3771 -3.54706 0
M  V30 224 H 20.8873 -2.91399 -2.56336 0
M  V30 225 H 18.9883 -0.704877 -3.65872 0
M  V30 226 H 19.1013 -2.54623 -4.05837 0
M  V30 227 H 17.4653 -1.27069 -2.20739 0
M  V30 228 H 18.2483 -2.90044 -1.83655 0
M  V30 229 N 20.6934 1.19889 -1.02296 0
M  V30 230 C 21.9394 1.89701 -0.717033 0
M  V30 231 C 22.2724 1.7905 0.751989 0
M  V30 232 O 21.5474 1.17891 1.547 0
M  V30 233 C 21.8304 3.40858 -1.16136 0
M  V30 234 C 21.6834 3.60411 -2.69117 0
M  V30 235 C 23.0024 4.33876 -0.737549 0
M  V30 236 H 20.1214 0.688874 -0.261957 0
M  V30 237 H 22.7634 1.41154 -1.27183 0
M  V30 238 H 20.9134 3.82335 -0.689342 0
M  V30 239 H 22.5854 3.28145 -3.2422 0
M  V30 240 H 20.8284 3.03665 -3.0979 0
M  V30 241 H 21.4994 4.66396 -2.95261 0
M  V30 242 H 23.9754 4.00081 -1.14344 0
M  V30 243 H 22.8514 5.38242 -1.0764 0
M  V30 244 H 23.1124 4.40628 0.360436 0
M  V30 245 N 22.1715 0.800033 1.35784 0
M  V30 246 C 23.4195 0.376597 1.9856 0
M  V30 247 C 23.7405 -1.05812 1.63795 0
M  V30 248 O 23.0105 -1.73103 0.917171 0
M  V30 249 H 21.5905 0.136261 0.734467 0
M  V30 250 H 24.2525 1.02442 1.65806 0
M  V30 251 H 23.3485 0.477002 3.08433 0
M  V30 252 N 23.6496 -1.47581 0.552962 0
M  V30 253 C 24.9266 -1.95563 -0.0381515 0
M  V30 254 C 25.3066 -1.49552 -1.48988 0
M  V30 255 O 24.6546 -0.732414 -2.16444 0
M  V30 256 C 24.8646 -3.48848 0.102919 0
M  V30 257 C 26.2126 -4.24577 -0.0446082 0
M  V30 258 O 27.2366 -3.56187 0.0302548 0
M  V30 259 O 26.0956 -5.46116 -0.204923 0
M  V30 260 H 23.1896 -0.824321 -0.0665067 0
M  V30 261 H 25.7356 -1.58001 0.619186 0
M  V30 262 H 24.5076 -3.75129 1.11328 0
M  V30 263 H 24.1306 -3.93165 -0.592224 0
M  V30 264 N 25.1277 -0.289203 -1.54924 0
M  V30 265 C 26.3757 0.322879 -1.99504 0
M  V30 266 C 26.6967 1.55313 -1.1791 0
M  V30 267 O 25.9667 1.94001 -0.272097 0
M  V30 268 H 24.5467 0.122291 -0.736922 0
M  V30 269 H 27.2087 -0.397802 -1.90797 0
M  V30 270 H 26.3047 0.603061 -3.06218 0
M  V30 271 N 26.6058 1.57591 -0.0167156 0
M  V30 272 C 27.5688 2.08393 0.954204 0
M  V30 273 C 28.5688 0.996531 1.26198 0
M  V30 274 O 29.7588 1.25858 1.20438 0
M  V30 275 C 26.8908 2.5394 2.27436 0
M  V30 276 H 28.0838 2.95455 0.514451 0
M  V30 277 H 25.6368 1.54582 0.231089 0
M  V30 278 H 26.3718 1.70171 2.76066 0
M  V30 279 H 26.1568 3.33371 2.06412 0
M  V30 280 H 27.6468 2.93512 2.97053 0
M  V30 281 N 28.0839 -0.256276 1.55502 0
M  V30 282 C 29.0159 -1.33981 1.85962 0
M  V30 283 C 30.0289 -1.44743 0.745212 0
M  V30 284 O 31.2179 -1.4626 1.02324 0
M  V30 285 C 28.3179 -2.7194 2.02242 0
M  V30 286 C 27.4909 -2.83562 3.33033 0
M  V30 287 C 26.5499 -4.02304 3.39172 0
M  V30 288 O 25.5759 -3.92273 4.12444 0
M  V30 289 N 26.7779 -5.15045 2.67784 0
M  V30 290 H 29.5429 -1.08191 2.7949 0
M  V30 291 H 27.1039 -0.446388 1.55624 0
M  V30 292 H 29.0959 -3.49697 2.03701 0
M  V30 293 H 27.6659 -2.90479 1.15502 0
M  V30 294 H 26.8859 -1.92555 3.43971 0
M  V30 295 H 28.1739 -2.88271 4.19258 0
M  V30 296 H 27.5719 -5.26085 2.07968 0
M  V30 297 H 26.1289 -5.90972 2.74947 0
M  V30 298 N 29.562 -1.4872 -0.521534 0
M  V30 299 C 30.973 -1.50607 -1.10337 0
M  V30 300 C 31.324 -0.280612 -1.94183 0
M  V30 301 O 30.449 0.611507 -2.0758 0
M  V30 302 C 31.044 -2.72903 -2.00772 0
M  V30 303 C 29.603 -2.77634 -2.54158 0
M  V30 304 C 28.75 -2.44241 -1.31307 0
M  V30 305 H 31.701 -1.55714 -0.306388 0
M  V30 306 H 31.722 -2.519 -2.85178 0
M  V30 307 H 31.234 -3.62077 -1.39721 0
M  V30 308 H 29.335 -1.92689 -3.18907 0
M  V30 309 H 29.448 -3.79283 -2.92714 0
M  V30 310 H 27.812 -1.95577 -1.63161 0
M  V30 311 H 28.595 -3.35666 -0.719943 0
M  V30 312 N 31.0401 0.771051 -1.3745 0
M  V30 313 C 31.9731 1.89166 -1.27638 0
M  V30 314 C 32.9511 1.61842 -0.156782 0
M  V30 315 O 34.1351 1.85569 -0.331111 0
M  V30 316 C 31.2621 3.24405 -0.973621 0
M  V30 317 C 30.3081 3.70638 -2.1102 0
M  V30 318 S 31.1411 3.84228 -3.73 0
M  V30 319 C 32.2971 5.22313 -3.44876 0
M  V30 320 H 32.5301 1.972 -2.22485 0
M  V30 321 H 30.0631 0.932224 -1.23081 0
M  V30 322 H 32.0211 4.02514 -0.805766 0
M  V30 323 H 30.6821 3.14071 -0.0426279 0
M  V30 324 H 29.8751 4.68685 -1.85338 0
M  V30 325 H 29.4771 2.99632 -2.23822 0
M  V30 326 H 31.7691 6.07505 -2.99908 0
M  V30 327 H 32.7121 5.53008 -4.42253 0
M  V30 328 H 33.1201 4.90284 -2.79789 0
M  V30 329 N 32.5182 1.22032 0.997298 0
M  V30 330 C 33.4812 0.987909 2.06816 0
M  V30 331 C 34.4812 -0.0440084 1.6074 0
M  V30 332 O 35.6712 0.194053 1.73116 0
M  V30 333 C 32.8032 0.49132 3.37341 0
M  V30 334 H 33.9962 1.93803 2.28868 0
M  V30 335 H 31.5492 1.03838 1.16822 0
M  V30 336 H 32.2842 -0.463364 3.20973 0
M  V30 337 H 32.0692 1.23575 3.72118 0
M  V30 338 H 33.5592 0.348824 4.16141 0
M  V30 339 N 33.9963 -1.19345 1.0293 0
M  V30 340 C 34.9593 -2.20793 0.615069 0
M  V30 341 C 35.9593 -1.57553 -0.321533 0
M  V30 342 O 37.1493 -1.73862 -0.108483 0
M  V30 343 C 34.2813 -3.40754 -0.0999222 0
M  V30 344 H 35.4743 -2.58955 1.51269 0
M  V30 345 H 33.0273 -1.3303 0.820534 0
M  V30 346 H 33.7623 -3.0811 -1.01187 0
M  V30 347 H 33.5473 -3.87889 0.57309 0
M  V30 348 H 35.0373 -4.15898 -0.376645 0
M  V30 349 N 35.4744 -0.807222 -1.35358 0
M  V30 350 C 36.4074 -0.163572 -2.27613 0
M  V30 351 C 37.3854 0.670817 -1.48118 0
M  V30 352 O 38.5694 0.63796 -1.77376 0
M  V30 353 C 35.6964 0.773015 -3.29761 0
M  V30 354 C 34.7424 0.0181653 -4.26496 0
M  V30 355 S 35.5754 -1.31831 -5.19019 0
M  V30 356 C 36.7314 -0.38619 -6.24707 0
M  V30 357 H 36.9644 -0.945757 -2.81856 0
M  V30 358 H 34.4974 -0.602315 -1.42167 0
M  V30 359 H 36.4554 1.30788 -3.89108 0
M  V30 360 H 35.1164 1.52859 -2.74396 0
M  V30 361 H 34.3094 0.729534 -4.98692 0
M  V30 362 H 33.9114 -0.446761 -3.71322 0
M  V30 363 H 36.2034 0.428295 -6.76145 0
M  V30 364 H 37.1464 -1.07736 -6.99856 0
M  V30 365 H 37.5544 0.018398 -5.64497 0
M  V30 366 N 36.9525 1.47285 -0.560781 0
M  V30 367 C 38.2005 2.02064 -0.0379868 0
M  V30 368 C 38.5215 1.43711 1.31803 0
M  V30 369 O 37.7915 0.61362 1.86042 0
M  V30 370 H 36.3715 0.746918 -0.0110531 0
M  V30 371 H 39.0335 1.80648 -0.731598 0
M  V30 372 H 38.1295 3.12064 0.0474463 0
M  V30 373 N 38.4306 0.297415 1.54768 0
M  V30 374 C 39.6786 -0.312295 1.99673 0
M  V30 375 C 39.9996 -1.54686 1.18732 0
M  V30 376 O 39.2696 -1.93854 0.282382 0
M  V30 377 H 37.8496 -0.118381 0.73756 0
M  V30 378 H 40.5116 0.407915 1.90583 0
M  V30 379 H 39.6076 -0.586813 3.06534 0
M  V30 380 N 39.9087 -1.5758 0.0250728 0
M  V30 381 C 40.8387 -2.13007 -0.956575 0
M  V30 382 C 41.8197 -1.0452 -1.342 0
M  V30 383 O 43.0047 -1.32332 -1.42133 0
M  V30 384 C 40.1347 -2.65386 -2.24026 0
M  V30 385 C 39.0887 -3.78623 -1.99571 0
M  V30 386 C 38.4147 -4.17414 -3.3417 0
M  V30 387 C 39.7147 -5.04867 -1.33814 0
M  V30 388 H 41.4087 -2.9528 -0.494991 0
M  V30 389 H 38.9547 -1.42042 -0.236651 0
M  V30 390 H 40.9077 -3.02794 -2.93076 0
M  V30 391 H 39.6317 -1.80268 -2.72343 0
M  V30 392 H 38.2907 -3.41646 -1.32941 0
M  V30 393 H 37.9387 -3.29284 -3.80238 0
M  V30 394 H 37.6387 -4.93719 -3.18615 0
M  V30 395 H 39.1627 -4.57402 -4.04495 0
M  V30 396 H 40.5767 -5.39888 -1.92857 0
M  V30 397 H 38.9737 -5.86144 -1.28669 0
M  V30 398 H 40.0437 -4.83904 -0.310561 0
M  V30 399 N 41.3868 0.248026 -1.55636 0
M  V30 400 C 42.3338 1.30707 -1.90222 0
M  V30 401 C 43.3038 1.47881 -0.756332 0
M  V30 402 O 44.4888 1.61883 -1.00988 0
M  V30 403 C 41.6288 2.65769 -2.20138 0
M  V30 404 C 40.7418 2.56612 -3.47526 0
M  V30 405 C 39.8768 3.8402 -3.67017 0
M  V30 406 C 38.9158 3.69476 -4.8801 0
M  V30 407 N 38.0528 4.88774 -5.04029 0
M  V30 408 H 42.8928 1.00512 -2.80538 0
M  V30 409 H 40.4298 0.485055 -1.38873 0
M  V30 410 H 42.3878 3.44386 -2.35487 0
M  V30 411 H 41.0178 2.94115 -1.33027 0
M  V30 412 H 40.0698 1.69571 -3.40514 0
M  V30 413 H 41.3818 2.41774 -4.36287 0
M  V30 414 H 40.5358 4.7108 -3.8232 0
M  V30 415 H 39.2748 4.01754 -2.76487 0
M  V30 416 H 38.2798 2.80799 -4.72686 0
M  V30 417 H 39.5048 3.53238 -5.8 0
M  V30 418 H 37.4508 5.0687 -4.16435 0
M  V30 419 H 37.3678 4.76562 -5.86877 0
M  V30 420 H 38.6358 5.77335 -5.23741 0
M  V30 421 N 42.8649 1.48995 0.513639 0
M  V30 422 C 44.1109 1.58076 1.27042 0
M  V30 423 C 44.4439 0.261026 1.92438 0
M  V30 424 O 43.7189 -0.734393 1.80103 0
M  V30 425 C 44.0019 2.73091 2.34719 0
M  V30 426 C 43.8549 4.14821 1.73907 0
M  V30 427 C 45.1739 2.83796 3.36375 0
M  V30 428 H 42.2929 0.575391 0.460536 0
M  V30 429 H 44.9349 1.81232 0.570516 0
M  V30 430 H 43.0849 2.53479 2.94416 0
M  V30 431 H 44.7569 4.45917 1.18135 0
M  V30 432 H 42.9999 4.21058 1.0437 0
M  V30 433 H 43.6709 4.91147 2.51949 0
M  V30 434 H 46.1469 3.01611 2.86653 0
M  V30 435 H 45.0229 3.65971 4.09093 0
M  V30 436 H 45.2839 1.92624 3.9793 0
M  V30 437 N 44.343 -0.763751 1.37857 0
M  V30 438 C 45.273 -1.89103 1.36975 0
M  V30 439 C 46.254 -1.68439 0.237152 0
M  V30 440 O 47.439 -1.8918 0.438713 0
M  V30 441 C 44.569 -3.26496 1.18395 0
M  V30 442 C 43.523 -3.61741 2.28751 0
M  V30 443 C 42.849 -4.97762 1.95286 0
M  V30 444 C 44.149 -3.67665 3.70972 0
M  V30 445 H 45.843 -1.90099 2.31307 0
M  V30 446 H 43.389 -0.91319 1.11341 0
M  V30 447 H 45.342 -4.05003 1.16406 0
M  V30 448 H 44.066 -3.25955 0.205215 0
M  V30 449 H 42.725 -2.85547 2.29909 0
M  V30 450 H 42.373 -4.93769 0.959221 0
M  V30 451 H 42.073 -5.22313 2.69189 0
M  V30 452 H 43.597 -5.7866 1.94898 0
M  V30 453 H 45.011 -4.36307 3.719 0
M  V30 454 H 43.408 -4.03718 4.43995 0
M  V30 455 H 44.478 -2.68134 4.0402 0
M  V30 456 N 45.8211 -1.22559 -0.990812 0
M  V30 457 C 46.7511 -1.0218 -2.09956 0
M  V30 458 C 47.7321 0.0579394 -1.70001 0
M  V30 459 O 48.9171 -0.104684 -1.93918 0
M  V30 460 C 46.0471 -0.601023 -3.4206 0
M  V30 461 C 45.0011 -1.62694 -3.95872 0
M  V30 462 C 44.3271 -1.06193 -5.24049 0
M  V30 463 C 45.6271 -3.01743 -4.2632 0
M  V30 464 H 47.3211 -1.94916 -2.27262 0
M  V30 465 H 44.8671 -0.938566 -1.09211 0
M  V30 466 H 46.8201 -0.445561 -4.19038 0
M  V30 467 H 45.5441 0.362005 -3.24588 0
M  V30 468 H 44.2031 -1.77021 -3.21028 0
M  V30 469 H 43.8511 -0.0901903 -5.02919 0
M  V30 470 H 43.5511 -1.74732 -5.61019 0
M  V30 471 H 45.0751 -0.918092 -6.03658 0
M  V30 472 H 46.4891 -2.90777 -4.94087 0
M  V30 473 H 44.8861 -3.67425 -4.74467 0
M  V30 474 H 45.9561 -3.51518 -3.34011 0
M  V30 475 N 47.2992 1.18797 -1.03562 0
M  V30 476 C 48.2492 2.20161 -0.592724 0
M  V30 477 C 49.2332 1.56772 0.362133 0
M  V30 478 O 50.4252 1.76062 0.182009 0
M  V30 479 C 47.5542 3.43266 0.0481024 0
M  V30 480 C 46.6402 4.13786 -0.9296 0
M  V30 481 N 47.0312 4.60388 -2.09467 0
M  V30 482 C 45.3292 4.39572 -0.754499 0
M  V30 483 C 46.0302 5.14619 -2.71187 0
M  V30 484 N 45.0062 5.05826 -1.991 0
M  V30 485 H 48.8082 2.53877 -1.48066 0
M  V30 486 H 46.3222 1.34946 -0.903514 0
M  V30 487 H 48.3192 4.15136 0.383058 0
M  V30 488 H 46.9792 3.11048 0.931636 0
M  V30 489 H 47.9902 4.54999 -2.47379 0
M  V30 490 H 44.6672 4.17425 0.0793713 0
M  V30 491 H 46.0572 5.60917 -3.69895 0
M  V30 492 N 48.7773 0.814389 1.34928 0
M  V30 493 C 50.0233 0.408167 1.99263 0
M  V30 494 C 50.3783 -1.0154 1.63424 0
M  V30 495 O 49.6713 -1.69607 0.891289 0
M  V30 496 C 49.8653 0.537781 3.53331 0
M  V30 497 C 49.6943 1.9724 4.04137 0
M  V30 498 C 48.4643 2.60245 4.33129 0
M  V30 499 C 50.6623 2.93801 4.2212 0
M  V30 500 N 48.6443 3.95036 4.69914 0
M  V30 501 C 50.0153 4.1348 4.6199 0
M  V30 502 C 52.0703 2.9053 4.04348 0
M  V30 503 C 50.7733 5.3033 4.85945 0
M  V30 504 C 52.7993 4.06589 4.29464 0
M  V30 505 C 52.1613 5.25017 4.69613 0
M  V30 506 H 48.2603 0.197289 0.756704 0
M  V30 507 H 50.8443 1.05728 1.63492 0
M  V30 508 H 49.0153 -0.0813868 3.88315 0
M  V30 509 H 50.7473 0.105389 4.04563 0
M  V30 510 H 47.5023 2.11545 4.23728 0
M  V30 511 H 47.9263 4.64455 4.92555 0
M  V30 512 H 52.5683 2.00115 3.72443 0
M  V30 513 H 50.2863 6.21309 5.16721 0
M  V30 514 H 53.8723 4.05447 4.17257 0
M  V30 515 H 52.7523 6.1333 4.88667 0
M  V30 516 N 50.2554 -1.46986 0.568584 0
M  V30 517 C 51.2184 -2.28624 -0.162366 0
M  V30 518 C 52.2184 -1.37596 -0.832103 0
M  V30 519 O 53.4084 -1.60115 -0.68622 0
M  V30 520 C 50.5404 -3.17596 -1.23878 0
M  V30 521 H 51.7334 -2.94722 0.554899 0
M  V30 522 H 49.2864 -1.52863 0.325976 0
M  V30 523 H 50.0214 -2.56214 -1.98808 0
M  V30 524 H 49.8064 -3.846 -0.763219 0
M  V30 525 H 51.2964 -3.79078 -1.75185 0
M  V30 526 N 51.7335 -0.305618 -1.54608 0
M  V30 527 C 52.9815 0.301701 -1.99835 0
M  V30 528 C 53.3025 1.54054 -1.19551 0
M  V30 529 O 52.5725 1.93702 -0.292658 0
M  V30 530 H 51.1525 0.114468 -0.738178 0
M  V30 531 H 53.8145 -0.418016 -1.90364 0
M  V30 532 H 52.9105 0.570548 -3.06841 0
M  V30 533 N 53.2116 1.57565 -0.0334293 0
M  V30 534 C 54.6226 1.79746 0.504798 0
M  V30 535 C 54.9736 0.944091 1.71992 0
M  V30 536 O 54.0986 0.155694 2.15839 0
M  V30 537 C 54.6936 3.25997 0.922567 0
M  V30 538 C 53.2526 3.49159 1.40588 0
M  V30 539 C 52.3996 2.74785 0.372633 0
M  V30 540 H 55.3506 1.56565 -0.259436 0
M  V30 541 H 55.3716 3.35945 1.78666 0
M  V30 542 H 54.8836 3.88081 0.0379825 0
M  V30 543 H 52.9846 2.92332 2.31025 0
M  V30 544 H 53.0976 4.57873 1.41028 0
M  V30 545 H 51.4616 2.40391 0.841672 0
M  V30 546 H 52.2446 3.39587 -0.503559 0
M  V30 547 N 54.6897 -0.239769 1.55765 0
M  V30 548 C 55.9377 -0.964892 1.77579 0
M  V30 549 C 56.2587 -1.85582 0.598699 0
M  V30 550 O 55.5287 -1.92075 -0.385226 0
M  V30 551 H 54.1087 -0.359265 0.654933 0
M  V30 552 H 56.7707 -0.256001 1.93211 0
M  V30 553 H 55.8667 -1.58243 2.69009 0
M  V30 554 N 56.1678 -1.49265 -0.50573 0
M  V30 555 C 57.4158 -1.582 -1.25766 0
M  V30 556 C 57.7368 -0.268482 -1.93143 0
M  V30 557 O 57.0068 0.711833 -1.8251 0
M  V30 558 H 55.5868 -0.582873 -0.467191 0
M  V30 559 H 58.2488 -1.85865 -0.586525 0
M  V30 560 H 57.3448 -2.37563 -2.02412 0
M  V30 561 N 57.6459 0.756429 -1.3826 0
M  V30 562 C 58.8939 1.51248 -1.34047 0
M  V30 563 C 59.2149 1.94875 0.0698372 0
M  V30 564 O 58.4849 1.67436 1.01696 0
M  V30 565 H 57.0649 0.561018 -0.493222 0
M  V30 566 H 59.7269 0.899347 -1.7291 0
M  V30 567 H 58.8229 2.40472 -1.98947 0
M  V30 568 N 59.124 1.23083 0.984299 0
M  V30 569 C 60.034 1.02515 2.11016 0
M  V30 570 C 61.05 -0.0291702 1.73976 0
M  V30 571 O 62.226 0.165434 2.00719 0
M  V30 572 C 59.291 0.614673 3.41208 0
M  V30 573 C 58.352 1.74359 3.92297 0
M  V30 574 C 57.585 1.35261 5.16275 0
M  V30 575 O 57.808 0.235136 5.69915 0
M  V30 576 O 56.742 2.17227 5.61334 0
M  V30 577 H 60.568 1.96862 2.31255 0
M  V30 578 H 58.153 1.01753 1.09392 0
M  V30 579 H 60.035 0.396518 4.1953 0
M  V30 580 H 58.71 -0.299851 3.22308 0
M  V30 581 H 57.617 2.01635 3.1511 0
M  V30 582 H 58.95 2.63629 4.15645 0
M  V30 583 N 60.6021 -1.18246 1.0419 0
M  V30 584 C 62.0131 -1.69914 0.773698 0
M  V30 585 C 62.3641 -1.83085 -0.705297 0
M  V30 586 O 61.4891 -1.51123 -1.5489 0
M  V30 587 C 62.0841 -3.08619 1.39784 0
M  V30 588 C 60.6431 -3.57494 1.17792 0
M  V30 589 C 59.7901 -2.34013 1.48773 0
M  V30 590 H 62.7411 -1.02904 1.20816 0
M  V30 591 H 62.7621 -3.71958 0.801714 0
M  V30 592 H 62.2741 -2.99001 2.47426 0
M  V30 593 H 60.3751 -3.72406 0.120295 0
M  V30 594 H 60.4881 -4.40852 1.87581 0
M  V30 595 H 58.8521 -2.37986 0.907463 0
M  V30 596 H 59.6351 -2.27013 2.57527 0
M  V30 597 N 62.0802 -0.821533 -1.34494 0
M  V30 598 C 63.3262 -0.418729 -1.99043 0
M  V30 599 C 63.6812 1.00672 -1.6396 0
M  V30 600 O 62.9742 1.69132 -0.900271 0
M  V30 601 C 63.1682 -0.556512 -3.53041 0
M  V30 602 C 62.9972 -1.9938 -4.03085 0
M  V30 603 C 61.7672 -2.62539 -4.31742 0
M  V30 604 C 63.9652 -2.96035 -4.20556 0
M  V30 605 N 61.9472 -3.97523 -4.67813 0
M  V30 606 C 63.3182 -4.15924 -4.59791 0
M  V30 607 C 65.3732 -2.9267 -4.02801 0
M  V30 608 C 64.0762 -5.32899 -4.83126 0
M  V30 609 C 66.1022 -4.08861 -4.27302 0
M  V30 610 C 65.4642 -5.275 -4.66822 0
M  V30 611 H 61.5632 -0.201299 -0.755647 0
M  V30 612 H 64.1472 -1.06594 -1.62929 0
M  V30 613 H 62.3182 0.0607924 -3.88352 0
M  V30 614 H 64.0502 -0.126842 -4.04501 0
M  V30 615 H 60.8052 -2.13789 -4.22601 0
M  V30 616 H 61.2292 -4.67061 -4.90085 0
M  V30 617 H 65.8712 -2.02088 -3.71376 0
M  V30 618 H 63.5892 -6.24041 -5.13418 0
M  V30 619 H 67.1752 -4.07654 -4.15101 0
M  V30 620 H 66.0552 -6.15913 -4.85408 0
M  V30 621 N 63.5583 1.46682 -0.576371 0
M  V30 622 C 64.8043 2.02712 -0.0596221 0
M  V30 623 C 65.1373 1.44765 1.29448 0
M  V30 624 O 64.4123 0.610355 1.84675 0
M  V30 625 C 64.6953 3.60098 0.0129503 0
M  V30 626 C 64.5483 4.28441 -1.3696 0
M  V30 627 C 65.8673 4.34224 0.71678 0
M  V30 628 H 62.9863 0.736637 -0.0231407 0
M  V30 629 H 65.6283 1.74898 -0.742351 0
M  V30 630 H 63.7783 3.83926 0.594378 0
M  V30 631 H 65.4503 4.15896 -1.9957 0
M  V30 632 H 63.6933 3.8805 -1.93907 0
M  V30 633 H 64.3643 5.3716 -1.27135 0
M  V30 634 H 66.8403 4.15503 0.222908 0
M  V30 635 H 65.7163 5.43936 0.73657 0
M  V30 636 H 65.9773 4.04823 1.77682 0
M  V30 637 N 65.0364 0.313813 1.54444 0
M  V30 638 C 66.2644 -0.293918 2.04802 0
M  V30 639 C 66.6794 -1.46537 1.19047 0
M  V30 640 O 66.0364 -1.81182 0.218939 0
M  V30 641 C 66.0874 -0.737806 3.53891 0
M  V30 642 O 65.8084 0.387038 4.36387 0
M  V30 643 C 67.3094 -1.40936 4.203 0
M  V30 644 H 64.5294 -0.0620057 0.668129 0
M  V30 645 H 67.0734 0.457169 1.99324 0
M  V30 646 H 65.2284 -1.43889 3.59687 0
M  V30 647 H 65.6424 0.0391274 5.24485 0
M  V30 648 H 67.1164 -1.67099 5.26101 0
M  V30 649 H 67.5934 -2.35355 3.70816 0
M  V30 650 H 68.1994 -0.751117 4.18615 0
M  V30 651 N 66.5145 -1.57545 0.0417849 0
M  V30 652 C 67.7615 -1.92317 -0.634082 0
M  V30 653 C 68.0895 -0.919334 -1.71402 0
M  V30 654 O 67.3445 0.0698253 -1.95575 0
M  V30 655 C 67.6435 -3.33794 -1.27735 0
M  V30 656 C 67.3095 -4.49716 -0.326543 0
M  V30 657 C 65.9715 -4.81156 -0.0648814 0
M  V30 658 C 68.3235 -5.20182 0.325623 0
M  V30 659 C 65.6515 -5.80414 0.856539 0
M  V30 660 C 68.0035 -6.20424 1.23518 0
M  V30 661 C 66.6675 -6.50298 1.5056 0
M  V30 662 H 65.9375 -0.703736 -0.232027 0
M  V30 663 H 68.5845 -1.91205 0.106259 0
M  V30 664 H 66.8895 -3.31228 -2.09274 0
M  V30 665 H 68.5865 -3.57975 -1.80707 0
M  V30 666 H 65.1765 -4.25176 -0.540665 0
M  V30 667 H 69.3605 -4.96112 0.136546 0
M  V30 668 H 64.6165 -6.019 1.07363 0
M  V30 669 H 68.7905 -6.74141 1.74664 0
M  V30 670 H 66.4175 -7.27025 2.22123 0
M  V30 671 N 67.9926 0.231505 -1.5589 0
M  V30 672 C 69.2176 0.978689 -1.82856 0
M  V30 673 C 69.6426 1.77559 -0.620846 0
M  V30 674 O 69.0006 1.76119 0.430305 0
M  V30 675 C 69.0486 1.87997 -3.07716 0
M  V30 676 O 68.1526 2.97393 -2.85712 0
M  V30 677 H 67.4936 0.277663 -0.603158 0
M  V30 678 H 70.0236 0.24783 -2.03093 0
M  V30 679 H 70.0336 2.2917 -3.37558 0
M  V30 680 H 68.7086 1.29417 -3.95252 0
M  V30 681 H 67.2856 2.60238 -2.67078 0
M  V30 682 N 69.4707 1.49531 0.497807 0
M  V30 683 C 70.3807 1.69176 1.62532 0
M  V30 684 C 71.3967 0.5744 1.64246 0
M  V30 685 O 72.5727 0.849497 1.82608 0
M  V30 686 C 69.6377 1.75695 2.98885 0
M  V30 687 C 68.6987 2.9929 3.07773 0
M  V30 688 C 67.9317 3.05488 4.37622 0
M  V30 689 O 68.1547 2.19192 5.26603 0
M  V30 690 O 67.0887 3.9798 4.51548 0
M  V30 691 H 70.9147 2.647 1.48887 0
M  V30 692 H 68.4997 1.3331 0.674441 0
M  V30 693 H 70.3817 1.82317 3.79919 0
M  V30 694 H 69.0567 0.8335 3.12785 0
M  V30 695 H 67.9637 2.98183 2.25915 0
M  V30 696 H 69.2967 3.91125 2.98801 0
M  V30 697 N 70.9488 -0.749086 1.3866 0
M  V30 698 C 72.1738 -1.54344 1.38538 0
M  V30 699 C 72.5988 -1.88088 -0.0216655 0
M  V30 700 O 71.9568 -1.50899 -1.00494 0
M  V30 701 C 72.0048 -2.8164 2.25192 0
M  V30 702 O 71.1088 -3.7698 1.67212 0
M  V30 703 H 70.4498 -0.466654 0.472367 0
M  V30 704 H 72.9798 -0.925355 1.82478 0
M  V30 705 H 72.9898 -3.30519 2.3921 0
M  V30 706 H 71.6648 -2.56411 3.27454 0
M  V30 707 H 70.2418 -3.35699 1.6236 0
M  V30 708 N 72.4269 -1.23603 -0.977757 0
M  V30 709 C 73.6519 -1.09735 -1.75991 0
M  V30 710 C 74.0769 0.346858 -1.84874 0
M  V30 711 O 73.4349 1.25093 -1.3123 0
M  V30 712 C 73.4829 -1.73051 -3.16363 0
M  V30 713 O 72.5869 -0.994452 -4.0023 0
M  V30 714 H 71.9279 -0.384476 -0.541364 0
M  V30 715 H 74.4579 -1.6371 -1.2272 0
M  V30 716 H 74.4679 -1.78398 -3.66931 0
M  V30 717 H 73.1429 -2.78137 -3.09213 0
M  V30 718 H 71.7199 -1.01812 -3.58732 0
M  V30 719 N 73.905 1.17692 -1.04816 0
M  V30 720 C 74.835 2.23777 -0.666791 0
M  V30 721 C 75.816 1.66796 0.33361 0
M  V30 722 O 77.001 1.93039 0.212042 0
M  V30 723 C 74.131 3.47281 -0.0367933 0
M  V30 724 C 73.085 4.17059 -0.961546 0
M  V30 725 C 72.411 5.34342 -0.195626 0
M  V30 726 C 73.711 4.69713 -2.28402 0
M  V30 727 H 75.405 2.55933 -1.55367 0
M  V30 728 H 72.951 1.23019 -0.748484 0
M  V30 729 H 74.904 4.20706 0.241775 0
M  V30 730 H 73.628 3.14381 0.885004 0
M  V30 731 H 72.287 3.45541 -1.22462 0
M  V30 732 H 71.935 4.97692 0.728816 0
M  V30 733 H 71.635 5.81966 -0.811775 0
M  V30 734 H 73.159 6.10553 0.0757473 0
M  V30 735 H 74.573 5.34794 -2.06563 0
M  V30 736 H 72.97 5.279 -2.8538 0
M  V30 737 H 74.04 3.86726 -2.92525 0
M  V30 738 N 75.3831 0.828654 1.34056 0
M  V30 739 C 76.6111 0.43262 2.02326 0
M  V30 740 C 77.0261 -0.963147 1.62385 0
M  V30 741 O 76.3831 -1.62425 0.832121 0
M  V30 742 C 76.4341 0.53182 3.57567 0
M  V30 743 O 76.1551 1.87258 3.96063 0
M  V30 744 C 77.6561 0.131422 4.43105 0
M  V30 745 H 74.8761 0.172923 0.648335 0
M  V30 746 H 77.4201 1.1184 1.71208 0
M  V30 747 H 75.5751 -0.105938 3.87255 0
M  V30 748 H 75.9891 1.85087 4.90758 0
M  V30 749 H 77.4631 0.251904 5.51425 0
M  V30 750 H 77.9401 -0.925645 4.29335 0
M  V30 751 H 78.5461 0.743207 4.18756 0
M  V30 752 N 76.8612 -1.46375 0.584142 0
M  V30 753 C 77.8242 -2.28784 -0.138108 0
M  V30 754 C 78.8242 -1.38471 -0.817462 0
M  V30 755 O 80.0142 -1.60833 -0.669199 0
M  V30 756 C 77.1462 -3.18892 -1.20503 0
M  V30 757 H 78.3392 -2.94117 0.586127 0
M  V30 758 H 75.8922 -1.52509 0.342171 0
M  V30 759 H 76.6272 -2.58309 -1.96079 0
M  V30 760 H 76.4122 -3.85388 -0.722384 0
M  V30 761 H 77.9022 -3.80914 -1.71155 0
M  V30 762 N 78.3393 -0.321999 -1.54275 0
M  V30 763 C 79.2493 0.553631 -2.27974 0
M  V30 764 C 80.2653 1.13054 -1.32268 0
M  V30 765 O 81.4413 1.15084 -1.6528 0
M  V30 766 C 78.5063 1.69927 -3.02201 0
M  V30 767 C 77.5673 1.15433 -4.1349 0
M  V30 768 C 76.8003 2.24537 -4.84168 0
M  V30 769 O 77.0233 3.44852 -4.5435 0
M  V30 770 O 75.9573 1.90044 -5.7111 0
M  V30 771 H 79.7833 -0.0448345 -3.03667 0
M  V30 772 H 77.3683 -0.0877418 -1.49142 0
M  V30 773 H 79.2503 2.3663 -3.48689 0
M  V30 774 H 77.9253 2.28395 -2.29385 0
M  V30 775 H 76.8323 0.452436 -3.71354 0
M  V30 776 H 78.1653 0.614805 -4.88345 0
M  V30 777 N 79.8174 1.5752 -0.0501392 0
M  V30 778 C 80.7274 2.14952 0.939827 0
M  V30 779 C 81.7434 1.10706 1.34239 0
M  V30 780 O 82.9194 1.42869 1.41952 0
M  V30 781 C 79.9844 2.68232 2.19665 0
M  V30 782 C 79.0454 3.87272 1.85253 0
M  V30 783 C 78.2784 4.38002 3.04943 0
M  V30 784 O 78.5014 3.87811 4.18281 0
M  V30 785 O 77.4354 5.29602 2.86017 0
M  V30 786 H 81.2614 2.9986 0.481392 0
M  V30 787 H 78.8464 1.4841 0.171699 0
M  V30 788 H 80.7284 3.02475 2.93406 0
M  V30 789 H 79.4034 1.86395 2.64648 0
M  V30 790 H 78.3104 3.5792 1.0883 0
M  V30 791 H 79.6434 4.70336 1.4507 0
M  V30 792 N 81.2955 -0.223234 1.56011 0
M  V30 793 C 82.5415 -0.949279 1.79211 0
M  V30 794 C 82.8745 -1.84054 0.619494 0
M  V30 795 O 82.1495 -1.90726 -0.381317 0
M  V30 796 C 82.4325 -1.78965 3.12479 0
M  V30 797 C 82.2855 -0.924997 4.40186 0
M  V30 798 C 83.6045 -2.76774 3.42175 0
M  V30 799 H 80.7235 -0.343676 0.651963 0
M  V30 800 H 83.3655 -0.218253 1.88742 0
M  V30 801 H 81.5155 -2.41291 3.04485 0
M  V30 802 H 83.1875 -0.318615 4.60198 0
M  V30 803 H 81.4305 -0.230344 4.33188 0
M  V30 804 H 82.1015 -1.54735 5.29869 0
M  V30 805 H 84.5775 -2.24584 3.50287 0
M  V30 806 H 83.4535 -3.32678 4.36597 0
M  V30 807 H 83.7145 -3.54429 2.64258 0
M  V30 808 N 82.7736 -1.49793 -0.48987 0
M  V30 809 C 84.0136 -1.61466 -1.25332 0
M  V30 810 C 84.3776 -0.299688 -1.89647 0
M  V30 811 O 85.5786 -0.291687 -2.67213 0
M  V30 812 C 83.8496 -2.74944 -2.28343 0
M  V30 813 S 85.4086 -3.06637 -3.13878 0
M  V30 814 H 82.2266 -0.569411 -0.425784 0
M  V30 815 H 84.8286 -1.875 -0.553541 0
M  V30 816 H 83.5326 -3.68994 -1.79643 0
M  V30 817 H 83.0636 -2.50938 -3.02975 0
M  V30 818 H 85.0786 -2.49015 -4.29192 0
M  V30 819 N 84.2517 0.741722 -1.39055 0
M  V30 820 C 85.5007 1.49656 -1.35225 0
M  V30 821 C 85.8137 1.95533 0.0512708 0
M  V30 822 O 87.0197 2.7067 0.212138 0
M  V30 823 C 85.4757 2.70389 -2.37525 0
M  V30 824 C 85.0837 2.31489 -3.83558 0
M  V30 825 C 86.8277 3.48236 -2.42759 0
M  V30 826 C 84.7347 3.48903 -4.77515 0
M  V30 827 H 83.6647 0.56197 -0.502699 0
M  V30 828 H 86.3157 0.809727 -1.64668 0
M  V30 829 H 84.6977 3.41113 -2.01142 0
M  V30 830 H 85.8717 1.68354 -4.28945 0
M  V30 831 H 84.1867 1.66749 -3.81554 0
M  V30 832 H 86.7837 4.35558 -3.1015 0
M  V30 833 H 87.1267 3.90229 -1.45008 0
M  V30 834 H 87.6597 2.84535 -2.78002 0
M  V30 835 H 84.3987 3.11966 -5.76504 0
M  V30 836 H 83.9187 4.11041 -4.36813 0
M  V30 837 H 85.5977 4.15328 -4.96096 0
M  V30 838 N 85.7298 1.2412 0.971189 0
M  V30 839 C 86.6798 0.997551 2.05019 0
M  V30 840 C 87.6638 -0.0597747 1.60789 0
M  V30 841 O 88.8558 0.153516 1.76333 0
M  V30 842 C 85.9848 0.600557 3.38006 0
M  V30 843 C 85.0708 1.69377 3.88809 0
M  V30 844 N 85.4618 2.92586 4.12586 0
M  V30 845 C 83.7598 1.57048 4.17435 0
M  V30 846 C 84.4608 3.63431 4.54195 0
M  V30 847 N 83.4368 2.90979 4.59165 0
M  V30 848 H 87.2388 1.93316 2.21374 0
M  V30 849 H 84.7528 1.14194 1.1547 0
M  V30 850 H 86.7498 0.40725 4.14906 0
M  V30 851 H 85.4098 -0.327903 3.2304 0
M  V30 852 H 86.4208 3.288 4.00139 0
M  V30 853 H 83.0978 0.709798 4.11422 0
M  V30 854 H 84.4878 4.69102 4.81033 0
M  V30 855 N 87.2079 -1.17134 1.05439 0
M  V30 856 C 88.4569 -1.86791 0.761049 0
M  V30 857 C 88.7699 -1.82072 -0.714795 0
M  V30 858 O 89.9759 -2.47223 -1.12218 0
M  V30 859 C 88.4319 -3.35166 1.31117 0
M  V30 860 C 88.0399 -3.48381 2.81664 0
M  V30 861 C 89.7839 -4.10134 1.09499 0
M  V30 862 C 87.6909 -4.90793 3.29964 0
M  V30 863 H 86.6209 -0.699681 0.281002 0
M  V30 864 H 89.2719 -1.3226 1.27199 0
M  V30 865 H 87.6539 -3.8925 0.72803 0
M  V30 866 H 88.8279 -3.04502 3.45855 0
M  V30 867 H 87.1429 -2.86836 3.01851 0
M  V30 868 H 89.7399 -5.152 1.43084 0
M  V30 869 H 90.0829 -4.16287 0.0328772 0
M  V30 870 H 90.6159 -3.62264 1.64346 0
M  V30 871 H 87.3549 -4.89816 4.35616 0
M  V30 872 H 86.8749 -5.35333 2.70516 0
M  V30 873 H 88.5539 -5.59573 3.24787 0
M  V30 874 N 88.686 -0.835752 -1.33615 0
M  V30 875 C 89.649 -0.272 -2.2758 0
M  V30 876 C 90.649 0.557487 -1.50827 0
M  V30 877 O 91.839 0.37173 -1.70188 0
M  V30 878 C 88.971 0.617173 -3.35267 0
M  V30 879 H 90.164 -1.10111 -2.78954 0
M  V30 880 H 87.717 -0.608594 -1.43965 0
M  V30 881 H 88.452 1.46884 -2.89129 0
M  V30 882 H 88.237 0.0237066 -3.92093 0
M  V30 883 H 89.727 1.005 -4.05326 0
M  V30 884 N 90.1641 1.46063 -0.591896 0
M  V30 885 C 91.1141 2.27458 0.157172 0
M  V30 886 C 92.0981 1.3641 0.853301 0
M  V30 887 O 93.2901 1.60517 0.74588 0
M  V30 888 C 90.4191 3.22956 1.16423 0
M  V30 889 C 89.5051 4.2149 0.469742 0
M  V30 890 N 89.8961 5.03519 -0.479839 0
M  V30 891 C 88.1941 4.40161 0.719319 0
M  V30 892 C 88.8951 5.74904 -0.886591 0
M  V30 893 N 87.8711 5.43097 -0.233731 0
M  V30 894 H 91.6731 2.88272 -0.572392 0
M  V30 895 H 89.1871 1.57024 -0.414375 0
M  V30 896 H 91.1841 3.79986 1.71513 0
M  V30 897 H 89.8441 2.63701 1.89451 0
M  V30 898 H 90.8551 5.1078 -0.855823 0
M  V30 899 H 87.5321 3.92046 1.43548 0
M  V30 900 H 88.9221 6.50844 -1.66888 0
M  V30 901 N 91.6422 0.330177 1.54103 0
M  V30 902 C 92.5892 -0.532762 2.24567 0
M  V30 903 C 93.5592 -1.10635 1.23892 0
M  V30 904 O 94.7442 -1.14546 1.5259 0
M  V30 905 C 91.8842 -1.6845 3.01195 0
M  V30 906 C 90.9972 -1.13951 4.167 0
M  V30 907 C 90.1322 -2.25746 4.80845 0
M  V30 908 C 89.1712 -1.6853 5.88442 0
M  V30 909 N 88.3082 -2.74014 6.46421 0
M  V30 910 H 93.1482 0.0746905 2.97906 0
M  V30 911 H 90.6852 0.048632 1.4702 0
M  V30 912 H 92.6432 -2.36234 3.43874 0
M  V30 913 H 91.2732 -2.26314 2.30178 0
M  V30 914 H 90.3252 -0.35301 3.78758 0
M  V30 915 H 91.6372 -0.680892 4.94131 0
M  V30 916 H 90.7912 -3.01422 5.26526 0
M  V30 917 H 89.5302 -2.74947 4.0281 0
M  V30 918 H 88.5352 -0.913543 5.42157 0
M  V30 919 H 89.7602 -1.20198 6.68378 0
M  V30 920 H 87.7062 -3.22494 5.71256 0
M  V30 921 H 87.6232 -2.32735 7.19285 0
M  V30 922 H 88.8912 -3.49499 6.96757 0
M  V30 923 N 93.1203 -1.57491 0.0584922 0
M  V30 924 C 94.3663 -1.93264 -0.614558 0
M  V30 925 C 94.6993 -0.937717 -1.7006 0
M  V30 926 O 93.9743 0.0351652 -1.94468 0
M  V30 927 C 94.2573 -3.3938 -1.20386 0
M  V30 928 C 94.1103 -4.49625 -0.125375 0
M  V30 929 C 95.4293 -3.86039 -2.11334 0
M  V30 930 H 92.5483 -0.702791 -0.221933 0
M  V30 931 H 95.1903 -1.8961 0.12175 0
M  V30 932 H 93.3403 -3.42626 -1.83139 0
M  V30 933 H 95.0123 -4.58506 0.506971 0
M  V30 934 H 93.2553 -4.30354 0.545672 0
M  V30 935 H 93.9263 -5.48967 -0.577861 0
M  V30 936 H 96.4023 -3.84716 -1.58534 0
M  V30 937 H 95.2783 -4.88914 -2.49507 0
M  V30 938 H 95.5393 -3.23215 -3.01636 0
M  V30 939 N 94.5984 0.214957 -1.56127 0
M  V30 940 C 95.8464 0.936518 -1.79091 0
M  V30 941 C 96.1674 1.84606 -0.628148 0
M  V30 942 O 95.4374 1.92664 0.35462 0
M  V30 943 H 94.0174 0.3488 -0.660566 0
M  V30 944 H 96.6794 0.22523 -1.93594 0
M  V30 945 H 95.7754 1.53943 -2.71492 0
M  V30 946 N 96.0765 1.50051 0.48192 0
M  V30 947 C 97.3255 1.59741 1.23149 0
M  V30 948 C 97.6385 0.298163 1.93314 0
M  V30 949 O 98.8445 0.273835 2.70116 0
M  V30 950 C 97.3005 2.81926 2.23708 0
M  V30 951 C 96.9085 4.18685 1.59396 0
M  V30 952 C 98.6525 3.00956 2.99375 0
M  V30 953 C 96.5595 5.3207 2.58178 0
M  V30 954 H 95.4895 0.594838 0.46334 0
M  V30 955 H 98.1405 1.76467 0.503169 0
M  V30 956 H 96.5225 2.58736 2.99786 0
M  V30 957 H 97.6965 4.52088 0.891811 0
M  V30 958 H 96.0115 4.05171 0.960503 0
M  V30 959 H 98.6085 3.82836 3.73283 0
M  V30 960 H 98.9515 2.12258 3.58123 0
M  V30 961 H 99.4845 3.24277 2.30411 0
M  V30 962 H 96.2235 6.22888 2.04184 0
M  V30 963 H 95.7435 5.03098 3.26577 0
M  V30 964 H 97.4225 5.62196 3.20225 0
M  V30 965 N 97.5546 -0.734337 1.39446 0
M  V30 966 C 98.7826 -1.52358 1.39981 0
M  V30 967 C 99.1976 -1.88799 -0.0054975 0
M  V30 968 O 98.5546 -1.54146 -0.976998 0
M  V30 969 C 98.6056 -2.81072 2.27333 0
M  V30 970 O 98.3266 -2.46178 3.62392 0
M  V30 971 C 99.8276 -3.75096 2.36259 0
M  V30 972 H 97.0476 -0.470806 0.478103 0
M  V30 973 H 99.5916 -0.907339 1.83269 0
M  V30 974 H 97.7466 -3.39026 1.87457 0
M  V30 975 H 98.1606 -3.28866 4.08592 0
M  V30 976 H 99.6346 -4.62305 3.01626 0
M  V30 977 H 100.112 -4.16892 1.38194 0
M  V30 978 H 100.718 -3.23061 2.76608 0
M  V30 979 N 99.0327 -1.24633 -0.964593 0
M  V30 980 C 100.444 -1.08045 -1.5226 0
M  V30 981 C 100.795 0.347116 -1.93105 0
M  V30 982 O 99.9197 1.23588 -1.77637 0
M  V30 983 C 100.515 -1.95514 -2.76695 0
M  V30 984 C 99.0737 -1.8314 -3.28841 0
M  V30 985 C 98.2207 -1.90262 -2.01732 0
M  V30 986 H 101.172 -1.38064 -0.782553 0
M  V30 987 H 101.193 -1.48925 -3.50145 0
M  V30 988 H 100.705 -2.99407 -2.46936 0
M  V30 989 H 98.8057 -0.82092 -3.63444 0
M  V30 990 H 98.9187 -2.67406 -3.97531 0
M  V30 991 H 97.2827 -1.34027 -2.16584 0
M  V30 992 H 98.0657 -2.9574 -1.74334 0
M  V30 993 N 100.511 1.16574 -1.06058 0
M  V30 994 C 101.922 1.68662 -0.800632 0
M  V30 995 C 102.273 1.84184 0.67608 0
M  V30 996 O 101.398 1.53568 1.52466 0
M  V30 997 C 101.993 3.06356 -1.44676 0
M  V30 998 C 100.552 3.55575 -1.23465 0
M  V30 999 C 99.6988 2.31616 -1.52477 0
M  V30 1000 H 102.65 1.00969 -1.22438 0
M  V30 1001 H 102.671 3.70636 -0.860788 0
M  V30 1002 H 102.183 2.95027 -2.52152 0
M  V30 1003 H 100.284 3.72167 -0.179527 0
M  V30 1004 H 100.397 4.37812 -1.94571 0
M  V30 1005 H 98.7608 2.36512 -0.945209 0
M  V30 1006 H 99.5438 2.22887 -2.61106 0
M  V30 1007 N 101.989 0.842826 1.3317 0
M  V30 1008 C 103.229 0.446574 1.99462 0
M  V30 1009 C 103.593 -0.976818 1.65295 0
M  V30 1010 O 104.794 -1.477 2.24584 0
M  V30 1011 C 103.065 0.665353 3.51152 0
M  V30 1012 S 104.624 0.364911 4.3728 0
M  V30 1013 H 101.442 0.167803 0.690915 0
M  V30 1014 H 104.044 1.09297 1.62094 0
M  V30 1015 H 102.748 1.7006 3.73507 0
M  V30 1016 H 102.279 0.00494568 3.934 0
M  V30 1017 H 104.294 -0.813761 4.89482 0
M  V30 1018 N 103.467 -1.45747 0.599634 0
M  V30 1019 C 104.714 -2.02292 0.0917284 0
M  V30 1020 C 105.042 -1.46906 -1.27472 0
M  V30 1021 O 104.297 -0.630652 -1.8526 0
M  V30 1022 C 104.596 -3.57399 -0.00602758 0
M  V30 1023 C 104.262 -4.31902 1.29503 0
M  V30 1024 C 102.924 -4.51974 1.65144 0
M  V30 1025 C 105.276 -4.74551 2.15525 0
M  V30 1026 C 102.604 -5.11949 2.86574 0
M  V30 1027 C 104.956 -5.35868 3.36196 0
M  V30 1028 C 103.62 -5.54165 3.72099 0
M  V30 1029 H 102.89 -0.740239 0.0335658 0
M  V30 1030 H 105.537 -1.7491 0.779661 0
M  V30 1031 H 103.842 -3.84014 -0.777183 0
M  V30 1032 H 105.539 -3.98846 -0.415038 0
M  V30 1033 H 102.129 -4.16588 1.00761 0
M  V30 1034 H 106.313 -4.58784 1.8929 0
M  V30 1035 H 101.569 -5.24305 3.14507 0
M  V30 1036 H 105.743 -5.6787 4.03109 0
M  V30 1037 H 103.37 -6.00406 4.6628 0
M  V30 1038 N 104.945 -0.338344 -1.53925 0
M  V30 1039 C 105.893 0.536231 -2.26335 0
M  V30 1040 C 106.887 1.1063 -1.28286 0
M  V30 1041 O 108.093 1.05264 -1.46012 0
M  V30 1042 H 104.468 0.191602 -0.727181 0
M  V30 1043 H 106.439 -0.0965747 -2.98244 0
M  V30 1044 C 105.188 1.67803 -3.04528 0
M  V30 1045 H 104.511 1.24864 -3.79801 0
M  V30 1046 H 105.951 2.26526 -3.58416 0
M  V30 1047 C 104.41 2.60439 -2.13712 0
M  V30 1048 O 104.94 3.6255 -1.72975 0
M  V30 1049 N 103.146 2.29006 -1.78898 0
M  V30 1050 H 102.693 1.46011 -2.12223 0
M  V30 1051 H 102.651 2.91248 -1.18416 0
M  V30 1052 N 106.423 1.57458 -0.0668435 0
M  V30 1053 C 107.353 2.15468 0.899764 0
M  V30 1054 C 108.334 1.08042 1.31381 0
M  V30 1055 O 109.519 1.36054 1.38574 0
M  V30 1056 C 106.649 2.71232 2.16911 0
M  V30 1057 C 105.603 3.83781 1.89463 0
M  V30 1058 C 104.929 4.26127 3.22986 0
M  V30 1059 C 106.229 5.08238 1.20381 0
M  V30 1060 H 107.923 2.96488 0.416529 0
M  V30 1061 H 105.469 1.4262 0.198908 0
M  V30 1062 H 107.422 3.10458 2.84945 0
M  V30 1063 H 106.146 1.87426 2.67468 0
M  V30 1064 H 104.805 3.45051 1.23836 0
M  V30 1065 H 104.453 3.39249 3.71374 0
M  V30 1066 H 104.153 5.01993 3.05413 0
M  V30 1067 H 105.677 4.67966 3.92225 0
M  V30 1068 H 107.091 5.44811 1.78475 0
M  V30 1069 H 105.488 5.89349 1.13083 0
M  V30 1070 H 106.558 4.84558 0.182153 0
M  V30 1071 N 107.901 -0.206675 1.56239 0
M  V30 1072 C 109.148 -0.928842 1.79941 0
M  V30 1073 C 109.476 -1.83734 0.638131 0
M  V30 1074 O 108.731 -1.92039 -0.376746 0
M  V30 1075 C 109.03 -1.78675 3.09532 0
M  V30 1076 C 108.696 -1.03022 4.38973 0
M  V30 1077 C 107.358 -0.821302 4.74139 0
M  V30 1078 C 109.71 -0.497081 5.18824 0
M  V30 1079 C 107.038 -0.0675719 5.86661 0
M  V30 1080 C 109.39 0.24338 6.32132 0
M  V30 1081 C 108.054 0.463422 6.65889 0
M  V30 1082 H 107.324 -0.339887 0.658451 0
M  V30 1083 H 109.971 -0.195977 1.90495 0
M  V30 1084 H 108.276 -2.58794 2.94165 0
M  V30 1085 H 109.973 -2.34792 3.25075 0
M  V30 1086 H 106.563 -1.20306 4.11369 0
M  V30 1087 H 110.747 -0.645921 4.92079 0
M  V30 1088 H 106.003 0.112995 6.11296 0
M  V30 1089 H 110.177 0.66393 6.93228 0
M  V30 1090 H 107.804 1.04938 7.52922 0
M  V30 1091 N 109.379 -1.50304 -0.473955 0
M  V30 1092 C 110.342 -1.6841 -1.55469 0
M  V30 1093 C 111.342 -0.554905 -1.50922 0
M  V30 1094 O 112.532 -0.821882 -1.53593 0
M  V30 1095 C 109.664 -1.70667 -2.95102 0
M  V30 1096 H 110.857 -2.64828 -1.40733 0
M  V30 1097 H 108.41 -1.39742 -0.700132 0
M  V30 1098 H 109.145 -0.75932 -3.15285 0
M  V30 1099 H 108.93 -2.52698 -2.9981 0
M  V30 1100 H 110.42 -1.8664 -3.73571 0
M  V30 1101 N 110.857 0.726932 -1.39834 0
M  V30 1102 C 111.787 1.85405 -1.41941 0
M  V30 1103 C 112.768 1.67751 -0.281728 0
M  V30 1104 O 113.953 1.8795 -0.488717 0
M  V30 1105 C 111.083 3.23243 -1.2701 0
M  V30 1106 C 110.037 3.55549 -2.38262 0
M  V30 1107 C 109.363 4.9241 -2.08415 0
M  V30 1108 C 110.663 3.577 -3.80589 0
M  V30 1109 H 112.357 1.83899 -2.36266 0
M  V30 1110 H 109.903 0.883349 -1.13723 0
M  V30 1111 H 111.856 4.01775 -1.27103 0
M  V30 1112 H 110.58 3.25296 -0.291564 0
M  V30 1113 H 109.239 2.79351 -2.37399 0
M  V30 1114 H 108.887 4.91052 -1.0898 0
M  V30 1115 H 108.587 5.14992 -2.82943 0
M  V30 1116 H 110.111 5.73289 -2.10171 0
M  V30 1117 H 111.525 4.26293 -3.83337 0
M  V30 1118 H 109.922 3.91804 -4.54543 0
M  V30 1119 H 110.992 2.57328 -4.10987 0
M  V30 1120 N 112.336 1.25143 0.95797 0
M  V30 1121 C 113.583 1.09692 1.70217 0
M  V30 1122 C 113.911 -0.362654 1.91089 0
M  V30 1123 O 113.166 -1.28386 1.47701 0
M  V30 1124 C 113.465 1.79272 3.09187 0
M  V30 1125 C 113.131 3.29196 3.08125 0
M  V30 1126 C 111.793 3.70096 3.07543 0
M  V30 1127 C 114.145 4.24995 3.0171 0
M  V30 1128 C 111.473 5.05213 2.9829 0
M  V30 1129 C 113.825 5.60132 2.93999 0
M  V30 1130 C 112.489 6.00365 2.9175 0
M  V30 1131 H 111.759 0.401393 0.622868 0
M  V30 1132 H 114.406 1.55372 1.11945 0
M  V30 1133 H 112.711 1.26014 3.70982 0
M  V30 1134 H 114.408 1.64773 3.65583 0
M  V30 1135 H 110.998 2.96651 3.09348 0
M  V30 1136 H 115.182 3.9439 3.01281 0
M  V30 1137 H 110.438 5.35569 2.94916 0
M  V30 1138 H 114.612 6.3406 2.87996 0
M  V30 1139 H 112.239 7.05023 2.84336 0
M  V30 1140 N 113.814 -1.1601 1.06675 0
M  V30 1141 C 115.091 -1.82679 0.699114 0
M  V30 1142 C 115.471 -1.94559 -0.819137 0
M  V30 1143 O 114.819 -1.49169 -1.73092 0
M  V30 1144 C 115.029 -3.19445 1.40555 0
M  V30 1145 C 116.377 -3.95171 1.55323 0
M  V30 1146 O 117.401 -3.28976 1.36577 0
M  V30 1147 O 116.26 -5.13833 1.86112 0
M  V30 1148 H 113.354 -0.788954 0.247951 0
M  V30 1149 H 115.9 -1.23179 1.16726 0
M  V30 1150 H 114.672 -3.05856 2.44065 0
M  V30 1151 H 114.295 -3.86625 0.927733 0
M  V30 1152 N 115.292 -0.849877 -1.32721 0
M  V30 1153 C 116.255 -0.296122 -2.27279 0
M  V30 1154 C 117.255 0.541458 -1.5141 0
M  V30 1155 O 118.445 0.353658 -1.70572 0
M  V30 1156 C 115.577 0.581579 -3.35902 0
M  V30 1157 H 116.77 -1.13064 -2.77771 0
M  V30 1158 H 114.323 -0.62383 -1.43311 0
M  V30 1159 H 115.058 1.43809 -2.9067 0
M  V30 1160 H 114.843 -0.0178814 -3.92096 0
M  V30 1161 H 116.333 0.961951 -4.0637 0
M  V30 1162 N 116.77 1.45427 -0.607355 0
M  V30 1163 C 117.702 2.2871 0.149752 0
M  V30 1164 C 118.715 1.39937 0.831958 0
M  V30 1165 O 119.904 1.64313 0.697385 0
M  V30 1166 C 117.004 3.15673 1.23304 0
M  V30 1167 C 116.177 4.32722 0.637996 0
M  V30 1168 C 115.236 5.00895 1.61215 0
M  V30 1169 O 114.262 5.57697 1.13854 0
M  V30 1170 N 115.464 5.00159 2.94655 0
M  V30 1171 H 118.229 2.94328 -0.564882 0
M  V30 1172 H 115.79 1.55612 -0.446823 0
M  V30 1173 H 117.782 3.58144 1.88454 0
M  V30 1174 H 116.352 2.51965 1.8502 0
M  V30 1175 H 115.572 3.93734 -0.191572 0
M  V30 1176 H 116.86 5.08321 0.220665 0
M  V30 1177 H 116.258 4.553 3.35735 0
M  V30 1178 H 114.815 5.46495 3.55228 0
M  V30 1179 N 118.248 0.346503 1.53744 0
M  V30 1180 C 119.211 -0.496439 2.23759 0
M  V30 1181 C 120.211 -1.0252 1.2388 0
M  V30 1182 O 121.401 -0.913974 1.48297 0
M  V30 1183 C 118.533 -1.69187 2.95954 0
M  V30 1184 H 119.726 0.115952 2.99676 0
M  V30 1185 H 117.279 0.0978939 1.55993 0
M  V30 1186 H 118.014 -2.34288 2.24231 0
M  V30 1187 H 117.799 -1.31989 3.69217 0
M  V30 1188 H 119.289 -2.28969 3.49232 0
M  V30 1189 N 119.726 -1.57421 0.075193 0
M  V30 1190 C 120.658 -2.09904 -0.920483 0
M  V30 1191 C 121.671 -1.03191 -1.25918 0
M  V30 1192 O 122.86 -1.30695 -1.21577 0
M  V30 1193 C 119.96 -2.54726 -2.23534 0
M  V30 1194 C 119.133 -3.8505 -2.07498 0
M  V30 1195 C 118.192 -4.15929 -3.22319 0
M  V30 1196 O 117.218 -4.85474 -2.9716 0
M  V30 1197 N 118.42 -3.69745 -4.47514 0
M  V30 1198 H 121.185 -2.95954 -0.472359 0
M  V30 1199 H 118.746 -1.61523 -0.110444 0
M  V30 1200 H 120.738 -2.72443 -2.9926 0
M  V30 1201 H 119.308 -1.73795 -2.59835 0
M  V30 1202 H 118.528 -3.76679 -1.16219 0
M  V30 1203 H 119.816 -4.70348 -1.94038 0
M  V30 1204 H 119.214 -3.13569 -4.7084 0
M  V30 1205 H 117.771 -3.92655 -5.20255 0
M  V30 1206 N 121.204 0.198386 -1.56346 0
M  V30 1207 C 122.45 0.920648 -1.80698 0
M  V30 1208 C 122.783 1.83045 -0.648697 0
M  V30 1209 O 122.058 1.91308 0.350925 0
M  V30 1210 C 122.341 1.73971 -3.15287 0
M  V30 1211 C 122.194 0.85485 -4.41602 0
M  V30 1212 C 123.513 2.71296 -3.46535 0
M  V30 1213 H 120.632 0.333261 -0.657348 0
M  V30 1214 H 123.274 0.188198 -1.89066 0
M  V30 1215 H 121.424 2.36416 -3.08285 0
M  V30 1216 H 123.096 0.245362 -4.60647 0
M  V30 1217 H 121.339 0.161398 -4.335 0
M  V30 1218 H 122.01 1.46286 -5.32264 0
M  V30 1219 H 124.486 2.18983 -3.53816 0
M  V30 1220 H 123.362 3.2569 -4.41834 0
M  V30 1221 H 123.623 3.5018 -2.69864 0
M  V30 1222 N 122.682 1.50554 0.465978 0
M  V30 1223 C 123.928 1.63006 1.21658 0
M  V30 1224 C 124.283 0.328613 1.89573 0
M  V30 1225 O 123.576 -0.673813 1.79361 0
M  V30 1226 C 123.77 2.75152 2.28093 0
M  V30 1227 C 123.599 4.16075 1.7062 0
M  V30 1228 C 122.369 4.82408 1.50368 0
M  V30 1229 C 124.567 5.00145 1.1983 0
M  V30 1230 N 122.549 6.07532 0.881924 0
M  V30 1231 C 123.92 6.16035 0.700083 0
M  V30 1232 C 125.975 4.85882 1.08733 0
M  V30 1233 C 124.678 7.19228 0.101835 0
M  V30 1234 C 126.704 5.89257 0.503016 0
M  V30 1235 C 126.066 7.04398 0.0152005 0
M  V30 1236 H 122.165 0.650596 0.433877 0
M  V30 1237 H 124.749 1.8769 0.517746 0
M  V30 1238 H 122.92 2.52181 2.95397 0
M  V30 1239 H 124.652 2.76935 2.95109 0
M  V30 1240 H 121.407 4.39788 1.75737 0
M  V30 1241 H 121.831 6.7443 0.589312 0
M  V30 1242 H 126.473 3.97144 1.4504 0
M  V30 1243 H 124.191 8.07637 -0.273426 0
M  V30 1244 H 127.777 5.80286 0.419451 0
M  V30 1245 H 126.657 7.83021 -0.429856 0
M  V30 1246 N 124.16 -0.719506 1.40217 0
M  V30 1247 C 125.09 -1.8465 1.42922 0
M  V30 1248 C 126.071 -1.67599 0.29062 0
M  V30 1249 O 127.256 -1.87688 0.498677 0
M  V30 1250 C 124.386 -3.22565 1.28722 0
M  V30 1251 C 123.34 -3.54281 2.40144 0
M  V30 1252 C 122.666 -4.91298 2.11023 0
M  V30 1253 C 123.966 -3.55676 3.82481 0
M  V30 1254 H 125.66 -1.82644 2.37237 0
M  V30 1255 H 123.206 -0.877305 1.1419 0
M  V30 1256 H 125.159 -4.01095 1.29232 0
M  V30 1257 H 123.883 -3.25137 0.308811 0
M  V30 1258 H 122.542 -2.78088 2.38877 0
M  V30 1259 H 122.19 -4.90468 1.11582 0
M  V30 1260 H 121.89 -5.13485 2.8567 0
M  V30 1261 H 123.414 -5.72166 2.13209 0
M  V30 1262 H 124.828 -4.24254 3.85592 0
M  V30 1263 H 123.225 -3.89388 4.56614 0
M  V30 1264 H 124.295 -2.55144 4.12346 0
M  V30 1265 N 125.638 -1.25649 -0.95132 0
M  V30 1266 C 127.049 -1.09654 -1.51106 0
M  V30 1267 C 127.4 0.326615 -1.93462 0
M  V30 1268 O 126.525 1.21697 -1.78938 0
M  V30 1269 C 127.12 -1.98437 -2.74605 0
M  V30 1270 C 125.679 -1.86618 -3.2688 0
M  V30 1271 C 124.826 -1.9239 -1.99703 0
M  V30 1272 H 127.777 -1.38887 -0.767865 0
M  V30 1273 H 127.798 -1.5263 -3.48546 0
M  V30 1274 H 127.31 -3.02009 -2.43746 0
M  V30 1275 H 125.411 -0.859421 -3.62553 0
M  V30 1276 H 125.524 -2.71607 -3.94673 0
M  V30 1277 H 123.888 -1.36317 -2.15151 0
M  V30 1278 H 124.671 -2.97573 -1.71188 0
M  V30 1279 N 127.117 1.15442 -1.07289 0
M  V30 1280 C 128.528 1.67803 -0.818475 0
M  V30 1281 C 128.879 1.8489 0.656507 0
M  V30 1282 O 128.004 1.55176 1.50829 0
M  V30 1283 C 128.599 3.04805 -1.47917 0
M  V30 1284 C 127.158 3.54245 -1.27229 0
M  V30 1285 C 126.305 2.29986 -1.54925 0
M  V30 1286 H 129.256 0.996646 -1.23502 0
M  V30 1287 H 129.277 3.69702 -0.90005 0
M  V30 1288 H 128.789 2.92336 -2.55267 0
M  V30 1289 H 126.89 3.71956 -0.21899 0
M  V30 1290 H 127.003 4.35723 -1.99203 0
M  V30 1291 H 125.367 2.35496 -0.970242 0
M  V30 1292 H 126.15 2.20105 -2.63455 0
M  V30 1293 N 128.595 0.856903 1.32268 0
M  V30 1294 C 129.543 0.291987 2.3076 0
M  V30 1295 C 130.537 -0.585857 1.58947 0
M  V30 1296 O 131.743 -0.47341 1.73663 0
M  V30 1297 H 128.118 0.075721 0.748178 0
M  V30 1298 H 130.089 1.13687 2.75895 0
M  V30 1299 C 128.838 -0.502869 3.44044 0
M  V30 1300 H 128.161 0.163328 3.99466 0
M  V30 1301 H 129.601 -0.863691 4.1511 0
M  V30 1302 C 128.06 -1.68898 2.91505 0
M  V30 1303 O 128.59 -2.78811 2.89184 0
M  V30 1304 N 126.796 -1.51679 2.47875 0
M  V30 1305 H 126.343 -0.622666 2.49961 0
M  V30 1306 H 126.301 -2.31184 2.13076 0
M  V30 1307 N 130.073 -1.45103 0.615059 0
M  V30 1308 C 131.023 -2.27679 -0.120966 0
M  V30 1309 C 132.007 -1.3775 -0.831491 0
M  V30 1310 O 133.199 -1.61683 -0.720249 0
M  V30 1311 C 130.328 -3.24767 -1.1127 0
M  V30 1312 C 129.414 -4.22184 -0.402627 0
M  V30 1313 N 129.805 -5.02692 0.559884 0
M  V30 1314 C 128.103 -4.4125 -0.649202 0
M  V30 1315 C 128.804 -5.73421 0.977942 0
M  V30 1316 N 127.78 -5.42657 0.320104 0
M  V30 1317 H 131.582 -2.87325 0.618181 0
M  V30 1318 H 129.096 -1.56345 0.439304 0
M  V30 1319 H 131.093 -3.82666 -1.65446 0
M  V30 1320 H 129.753 -2.66682 -1.85232 0
M  V30 1321 H 130.764 -5.09354 0.936976 0
M  V30 1322 H 127.441 -3.9428 -1.37293 0
M  V30 1323 H 128.831 -6.48107 1.77222 0
M  V30 1324 N 131.551 -0.354651 -1.53558 0
M  V30 1325 C 132.8 0.239504 -2.00273 0
M  V30 1326 C 133.113 1.50759 -1.24623 0
M  V30 1327 O 134.319 2.17968 -1.61871 0
M  V30 1328 C 132.775 0.477341 -3.5672 0
M  V30 1329 C 132.383 -0.775488 -4.41237 0
M  V30 1330 C 134.127 1.02975 -4.11821 0
M  V30 1331 C 132.034 -0.507838 -5.89216 0
M  V30 1332 H 130.964 0.0932743 -0.748208 0
M  V30 1333 H 133.615 -0.471701 -1.77334 0
M  V30 1334 H 131.997 1.24953 -3.7577 0
M  V30 1335 H 133.171 -1.54963 -4.33962 0
M  V30 1336 H 131.486 -1.25033 -3.97185 0
M  V30 1337 H 134.083 1.24513 -5.2 0
M  V30 1338 H 134.426 1.98862 -3.65731 0
M  V30 1339 H 134.959 0.317994 -3.96527 0
M  V30 1340 H 131.698 -1.43674 -6.39561 0
M  V30 1341 H 131.218 0.228011 -5.99366 0
M  V30 1342 H 132.897 -0.129238 -6.46871 0
M  V30 1343 N 133.029 1.57378 -0.0835403 0
M  V30 1344 C 133.959 2.1641 0.87686 0
M  V30 1345 C 134.94 1.09429 1.30228 0
M  V30 1346 O 136.125 1.37516 1.37124 0
M  V30 1347 C 133.255 2.73517 2.14022 0
M  V30 1348 C 132.209 3.85769 1.85381 0
M  V30 1349 C 131.535 4.29529 3.18448 0
M  V30 1350 C 132.835 5.09486 1.14984 0
M  V30 1351 H 134.529 2.96914 0.385059 0
M  V30 1352 H 132.075 1.42823 0.18377 0
M  V30 1353 H 134.028 3.13463 2.81636 0
M  V30 1354 H 132.752 1.90252 2.65465 0
M  V30 1355 H 131.411 3.46345 1.20169 0
M  V30 1356 H 131.059 3.43169 3.67755 0
M  V30 1357 H 130.759 5.05204 3.00071 0
M  V30 1358 H 132.283 4.72099 3.8724 0
M  V30 1359 H 133.697 5.46674 1.72687 0
M  V30 1360 H 132.094 5.90515 1.06826 0
M  V30 1361 H 133.164 4.84724 0.130749 0
M  V30 1362 N 134.507 -0.190092 1.56449 0
M  V30 1363 C 135.417 -1.25591 1.98152 0
M  V30 1364 C 136.433 -1.49519 0.889944 0
M  V30 1365 O 137.609 -1.62036 1.19609 0
M  V30 1366 C 134.674 -2.57916 2.3169 0
M  V30 1367 C 133.735 -2.42015 3.5458 0
M  V30 1368 C 132.968 -3.6803 3.8651 0
M  V30 1369 O 133.191 -4.72413 3.1966 0
M  V30 1370 O 132.125 -3.6326 4.79923 0
M  V30 1371 H 135.951 -0.931988 2.89046 0
M  V30 1372 H 133.536 -0.395488 1.4407 0
M  V30 1373 H 135.418 -3.36008 2.54316 0
M  V30 1374 H 134.093 -2.89925 1.43963 0
M  V30 1375 H 133 -1.62017 3.37196 0
M  V30 1376 H 134.333 -2.14937 4.4279 0
M  V30 1377 N 135.985 -1.50799 -0.457987 0
M  V30 1378 C 137.234 -1.6168 -1.20593 0
M  V30 1379 C 137.547 -0.32888 -1.92815 0
M  V30 1380 O 138.753 -0.316773 -2.69646 0
M  V30 1381 C 137.209 -2.8545 -2.19195 0
M  V30 1382 C 136.817 -4.21168 -1.52715 0
M  V30 1383 C 138.561 -3.05681 -2.94549 0
M  V30 1384 C 136.468 -5.3611 -2.4968 0
M  V30 1385 H 135.398 -0.602134 -0.453818 0
M  V30 1386 H 138.049 -1.77245 -0.475031 0
M  V30 1387 H 136.431 -2.63472 -2.95632 0
M  V30 1388 H 137.605 -4.53449 -0.819775 0
M  V30 1389 H 135.92 -4.06648 -0.895922 0
M  V30 1390 H 138.517 -3.88727 -3.67145 0
M  V30 1391 H 138.86 -2.17929 -3.54701 0
M  V30 1392 H 139.393 -3.27901 -2.25223 0
M  V30 1393 H 136.132 -6.26057 -1.94249 0
M  V30 1394 H 135.652 -5.0823 -3.18532 0
M  V30 1395 H 137.331 -5.6722 -3.11241 0
M  V30 1396 N 137.463 0.71206 -1.40597 0
M  V30 1397 C 138.874 1.29135 -1.34837 0
M  V30 1398 C 139.225 1.96186 -0.0235395 0
M  V30 1399 O 138.35 1.97768 0.878444 0
M  V30 1400 C 138.945 2.34827 -2.44217 0
M  V30 1401 C 137.504 2.88371 -2.41907 0
M  V30 1402 C 136.651 1.62202 -2.24913 0
M  V30 1403 H 139.602 0.507944 -1.50352 0
M  V30 1404 H 139.623 3.15749 -2.12327 0
M  V30 1405 H 139.135 1.85996 -3.40627 0
M  V30 1406 H 137.236 3.41422 -1.49204 0
M  V30 1407 H 137.349 3.39925 -3.37621 0
M  V30 1408 H 135.713 1.874 -1.72492 0
M  V30 1409 H 136.496 1.15391 -3.23326 0
M  V30 1410 N 138.941 1.26152 0.944643 0
M  V30 1411 C 140.357 1.03189 1.21754 0
M  V30 1412 C 140.557 -0.245112 2.00004 0
M  V30 1413 O 139.613 -0.955176 2.33736 0
M  V30 1414 C 140.926 2.26119 1.98219 0
M  V30 1415 C 142.474 2.30984 2.11224 0
M  V30 1416 C 142.949 3.53597 2.91089 0
M  V30 1417 N 144.44 3.54053 2.98664 0
M  V30 1418 C 145.175 4.45593 3.60881 0
M  V30 1419 N 144.671 5.47416 4.24626 0
M  V30 1420 N 146.464 4.33252 3.58119 0
M  V30 1421 H 138.615 2.08177 0.421437 0
M  V30 1422 H 140.878 0.914723 0.248969 0
M  V30 1423 H 140.584 3.18984 1.48128 0
M  V30 1424 H 140.458 2.3009 2.98895 0
M  V30 1425 H 142.845 1.38635 2.60508 0
M  V30 1426 H 142.926 2.31026 1.09821 0
M  V30 1427 H 142.57 4.46273 2.42493 0
M  V30 1428 H 142.5 3.50802 3.92741 0
M  V30 1429 H 144.991 2.80403 2.53343 0
M  V30 1430 H 145.304 6.13459 4.69987 0
M  V30 1431 H 143.649 5.51278 4.23223 0
M  V30 1432 H 146.84 3.52924 3.0751 0
M  V30 1433 H 147.013 5.04786 4.06319 0
M  V30 1434 N 140.419 -1.14872 1.07899 0
M  V30 1435 C 141.696 -1.81928 0.71845 0
M  V30 1436 C 142.076 -1.95417 -0.798455 0
M  V30 1437 O 141.424 -1.50997 -1.715 0
M  V30 1438 C 141.634 -3.17937 1.43935 0
M  V30 1439 C 142.982 -3.93501 1.59506 0
M  V30 1440 O 144.006 -3.27509 1.40058 0
M  V30 1441 O 142.865 -5.1183 1.91551 0
M  V30 1442 H 139.959 -0.78628 0.256305 0
M  V30 1443 H 142.505 -1.21934 1.18026 0
M  V30 1444 H 141.277 -3.0325 2.47295 0
M  V30 1445 H 140.9 -3.85619 0.968687 0
M  V30 1446 N 141.898 -0.863906 -1.31812 0
M  V30 1447 C 142.861 -0.320212 -2.26952 0
M  V30 1448 C 143.861 0.525369 -1.51975 0
M  V30 1449 O 145.051 0.335547 -1.70938 0
M  V30 1450 C 142.183 0.545919 -3.365 0
M  V30 1451 H 143.376 -1.16004 -2.76556 0
M  V30 1452 H 140.929 -0.638995 -1.42641 0
M  V30 1453 H 141.664 1.40718 -2.92179 0
M  V30 1454 H 141.449 -0.0594674 -3.92055 0
M  V30 1455 H 142.939 0.918796 -4.07367 0
M  V30 1456 N 143.376 1.44774 -0.622745 0
M  V30 1457 C 144.601 2.06999 -0.128968 0
M  V30 1458 C 145.026 1.4617 1.1839 0
M  V30 1459 O 144.384 0.560007 1.72434 0
M  V30 1460 C 144.432 3.60595 -0.0188351 0
M  V30 1461 O 143.536 3.99398 1.02739 0
M  V30 1462 H 142.877 0.659047 -0.0809544 0
M  V30 1463 H 145.407 1.85784 -0.85705 0
M  V30 1464 H 145.417 4.07627 0.174476 0
M  V30 1465 H 144.092 4.04252 -0.977384 0
M  V30 1466 H 142.669 3.64011 0.809326 0
M  V30 1467 N 144.854 0.36279 1.53368 0
M  V30 1468 C 145.784 -0.476976 2.28576 0
M  V30 1469 C 146.765 -1.08631 1.30894 0
M  V30 1470 O 147.95 -1.10409 1.59761 0
M  V30 1471 C 145.08 -1.61828 3.07293 0
M  V30 1472 C 144.034 -1.13633 4.1264 0
M  V30 1473 C 143.36 -2.36766 4.79423 0
M  V30 1474 C 144.66 -0.223061 5.21823 0
M  V30 1475 H 146.354 0.150474 2.99022 0
M  V30 1476 H 143.9 0.0738103 1.43811 0
M  V30 1477 H 145.853 -2.21237 3.58653 0
M  V30 1478 H 144.577 -2.27292 2.34533 0
M  V30 1479 H 143.236 -0.564945 3.62221 0
M  V30 1480 H 142.884 -3.0068 4.03238 0
M  V30 1481 H 142.584 -2.05192 5.50609 0
M  V30 1482 H 144.108 -2.96865 5.33576 0
M  V30 1483 H 145.522 -0.724545 5.68703 0
M  V30 1484 H 143.919 0.001678 6.001 0
M  V30 1485 H 144.989 0.735553 4.79289 0
M  V30 1486 N 146.332 -1.57332 0.0918853 0
M  V30 1487 C 147.265 -2.09499 -0.904735 0
M  V30 1488 C 148.243 -1.00479 -1.27839 0
M  V30 1489 O 149.427 -1.27954 -1.38419 0
M  V30 1490 C 146.554 -2.56931 -2.2069 0
M  V30 1491 C 145.6 -3.77579 -1.98334 0
M  V30 1492 S 146.433 -5.21317 -1.22428 0
M  V30 1493 C 147.589 -5.72097 -2.53882 0
M  V30 1494 H 147.822 -2.93705 -0.460922 0
M  V30 1495 H 145.355 -1.53923 -0.121332 0
M  V30 1496 H 147.313 -2.84917 -2.95521 0
M  V30 1497 H 145.974 -1.72956 -2.62192 0
M  V30 1498 H 145.167 -4.08824 -2.94752 0
M  V30 1499 H 144.769 -3.5007 -1.31633 0
M  V30 1500 H 147.061 -5.80168 -3.49874 0
M  V30 1501 H 148.004 -6.70654 -2.27219 0
M  V30 1502 H 148.412 -5.00012 -2.62007 0
M  V30 1503 N 147.81 0.181792 -1.56548 0
M  V30 1504 C 148.74 1.22765 -1.98623 0
M  V30 1505 C 149.721 1.46747 -0.860189 0
M  V30 1506 O 150.906 1.58259 -1.12551 0
M  V30 1507 C 148.036 2.56894 -2.33715 0
M  V30 1508 C 146.99 2.475 -3.49182 0
M  V30 1509 C 146.316 3.86023 -3.69986 0
M  V30 1510 C 147.616 1.98866 -4.82959 0
M  V30 1511 H 149.31 0.877942 -2.86239 0
M  V30 1512 H 146.856 0.42088 -1.37712 0
M  V30 1513 H 148.809 3.30253 -2.61746 0
M  V30 1514 H 147.533 2.93632 -1.42997 0
M  V30 1515 H 146.192 1.76596 -3.21262 0
M  V30 1516 H 145.84 4.20136 -2.76576 0
M  V30 1517 H 145.54 3.80609 -4.47672 0
M  V30 1518 H 147.064 4.60984 -4.00407 0
M  V30 1519 H 148.478 2.61992 -5.09934 0
M  V30 1520 H 146.875 2.04424 -5.64208 0
M  V30 1521 H 147.945 0.942465 -4.75653 0
M  V30 1522 N 149.288 1.51039 0.449983 0
M  V30 1523 C 150.518 1.66627 1.22143 0
M  V30 1524 C 150.926 0.357776 1.85786 0
M  V30 1525 O 150.269 -0.672424 1.70951 0
M  V30 1526 C 150.331 2.71562 2.35573 0
M  V30 1527 C 149.995 4.14526 1.92399 0
M  V30 1528 C 150.992 4.99717 1.43453 0
M  V30 1529 C 148.677 4.60559 2.00475 0
M  V30 1530 C 150.671 6.28998 1.03155 0
M  V30 1531 C 148.358 5.8984 1.59788 0
M  V30 1532 C 149.356 6.73886 1.11208 0
M  V30 1533 O 149.044 8.0075 0.710935 0
M  V30 1534 H 148.776 0.562635 0.374724 0
M  V30 1535 H 151.33 1.98146 0.541036 0
M  V30 1536 H 149.56 2.3533 3.06849 0
M  V30 1537 H 151.249 2.76156 2.97478 0
M  V30 1538 H 152.015 4.65361 1.36618 0
M  V30 1539 H 147.894 3.95273 2.37235 0
M  V30 1540 H 151.438 6.9455 0.651663 0
M  V30 1541 H 147.335 6.23713 1.66289 0
M  V30 1542 H 148.103 8.142 0.837913 0
M  V30 1543 N 150.766 -0.704594 1.40972 0
M  V30 1544 C 152.013 -1.46458 1.39844 0
M  V30 1545 C 152.341 -1.94499 0.00447594 0
M  V30 1546 O 151.596 -1.69275 -0.982057 0
M  V30 1547 C 151.895 -2.698 2.34399 0
M  V30 1548 C 151.561 -2.40464 3.81429 0
M  V30 1549 C 150.223 -2.32174 4.21484 0
M  V30 1550 C 152.575 -2.16086 4.74296 0
M  V30 1551 C 149.903 -1.97589 5.52427 0
M  V30 1552 C 152.255 -1.83011 6.05549 0
M  V30 1553 C 150.919 -1.7321 6.44635 0
M  V30 1554 H 150.189 -0.535927 0.511725 0
M  V30 1555 H 152.836 -0.806124 1.73706 0
M  V30 1556 H 151.141 -3.40536 1.93759 0
M  V30 1557 H 152.838 -3.27919 2.30804 0
M  V30 1558 H 149.428 -2.47808 3.49699 0
M  V30 1559 H 153.612 -2.2144 4.4416 0
M  V30 1560 H 148.868 -1.88547 5.81601 0
M  V30 1561 H 153.042 -1.63164 6.77016 0
M  V30 1562 H 150.669 -1.46179 7.46013 0
M  V30 1563 N 152.244 -1.26651 -0.937939 0
M  V30 1564 C 153.66 -1.03834 -1.21205 0
M  V30 1565 C 153.86 0.234502 -2.00131 0
M  V30 1566 O 152.916 0.942767 -2.3424 0
M  V30 1567 C 154.229 -2.27167 -1.97017 0
M  V30 1568 C 155.777 -2.32101 -2.09996 0
M  V30 1569 C 156.252 -3.55136 -2.8921 0
M  V30 1570 N 157.743 -3.55632 -2.96783 0
M  V30 1571 C 158.478 -4.475 -3.58512 0
M  V30 1572 N 157.974 -5.4966 -4.21717 0
M  V30 1573 N 159.767 -4.35145 -3.55816 0
M  V30 1574 H 151.918 -2.08398 -0.410391 0
M  V30 1575 H 154.181 -0.916031 -0.244114 0
M  V30 1576 H 153.887 -3.19765 -1.46434 0
M  V30 1577 H 153.761 -2.31672 -2.97671 0
M  V30 1578 H 156.148 -1.40015 -2.59769 0
M  V30 1579 H 156.229 -2.31605 -1.08594 0
M  V30 1580 H 155.873 -4.47553 -2.40123 0
M  V30 1581 H 155.803 -3.5288 -3.90875 0
M  V30 1582 H 158.294 -2.81743 -2.51852 0
M  V30 1583 H 158.607 -6.15943 -4.66727 0
M  V30 1584 H 156.952 -5.53514 -4.20294 0
M  V30 1585 H 160.143 -3.5455 -3.05634 0
M  V30 1586 H 160.316 -5.06934 -4.03636 0
M  V30 1587 N 153.722 1.14298 -1.08507 0
M  V30 1588 C 154.971 1.84708 -0.810305 0
M  V30 1589 C 155.284 1.83903 0.666271 0
M  V30 1590 O 156.49 2.50112 1.05624 0
M  V30 1591 C 154.946 3.31572 -1.39957 0
M  V30 1592 C 154.554 3.40791 -2.90801 0
M  V30 1593 C 156.298 4.07087 -1.20334 0
M  V30 1594 C 154.205 4.81872 -3.4286 0
M  V30 1595 H 153.135 0.691985 -0.299454 0
M  V30 1596 H 155.786 1.28841 -1.30661 0
M  V30 1597 H 154.168 3.87183 -0.830976 0
M  V30 1598 H 155.342 2.95225 -3.53806 0
M  V30 1599 H 153.657 2.78732 -3.0935 0
M  V30 1600 H 156.254 5.11225 -1.56693 0
M  V30 1601 H 156.597 4.16054 -0.143237 0
M  V30 1602 H 157.13 3.57779 -1.73893 0
M  V30 1603 H 153.869 4.78094 -4.48449 0
M  V30 1604 H 153.389 5.27972 -2.84615 0
M  V30 1605 H 155.068 5.50765 -3.39509 0
M  V30 1606 N 155.201 0.870884 1.31352 0
M  V30 1607 C 156.617 0.562932 1.49343 0
M  V30 1608 C 156.817 -0.902725 1.80148 0
M  V30 1609 O 155.873 -1.68484 1.88067 0
M  V30 1610 C 157.186 1.46393 2.62659 0
M  V30 1611 C 158.734 1.46607 2.76542 0
M  V30 1612 C 159.209 2.35266 3.92955 0
M  V30 1613 N 160.7 2.33151 4.00243 0
M  V30 1614 C 161.435 2.98471 4.89594 0
M  V30 1615 N 160.931 3.72964 5.8384 0
M  V30 1616 N 162.724 2.87775 4.82848 0
M  V30 1617 H 154.875 1.81923 1.09626 0
M  V30 1618 H 157.138 0.777934 0.541777 0
M  V30 1619 H 156.844 2.50689 2.46674 0
M  V30 1620 H 156.718 1.16314 3.58819 0
M  V30 1621 H 159.105 0.43069 2.9194 0
M  V30 1622 H 159.186 1.8071 1.81046 0
M  V30 1623 H 158.83 3.38881 3.78315 0
M  V30 1624 H 158.76 1.98487 4.87761 0
M  V30 1625 H 161.251 1.79006 3.32814 0
M  V30 1626 H 161.564 4.19932 6.4875 0
M  V30 1627 H 159.909 3.77073 5.83816 0
M  V30 1628 H 163.1 2.29116 4.08195 0
M  V30 1629 H 163.273 3.38961 5.52277 0
M  V30 1630 N 156.679 -1.44442 0.630414 0
M  V30 1631 C 157.926 -2.02052 0.134617 0
M  V30 1632 C 158.254 -1.49576 -1.24327 0
M  V30 1633 O 157.509 -0.669806 -1.83881 0
M  V30 1634 C 157.808 -3.57332 0.0697835 0
M  V30 1635 C 157.474 -4.29058 1.38635 0
M  V30 1636 C 156.136 -4.4837 1.74694 0
M  V30 1637 C 158.488 -4.69872 2.25543 0
M  V30 1638 C 155.816 -5.05756 2.97369 0
M  V30 1639 C 158.168 -5.28616 3.47487 0
M  V30 1640 C 156.832 -5.46147 3.8377 0
M  V30 1641 H 156.102 -0.739361 0.0492598 0
M  V30 1642 H 158.749 -1.73217 0.816586 0
M  V30 1643 H 157.054 -3.85577 -0.695553 0
M  V30 1644 H 158.751 -3.99637 -0.330344 0
M  V30 1645 H 155.341 -4.14357 1.09574 0
M  V30 1646 H 159.525 -4.54666 1.98979 0
M  V30 1647 H 154.781 -5.17515 3.25558 0
M  V30 1648 H 158.955 -5.59192 4.15063 0
M  V30 1649 H 156.582 -5.9038 4.7891 0
M  V30 1650 N 158.157 -0.370918 -1.53173 0
M  V30 1651 C 159.387 0.217389 -2.05453 0
M  V30 1652 C 159.795 1.42568 -1.24382 0
M  V30 1653 O 159.138 1.81571 -0.278839 0
M  V30 1654 C 159.2 0.669827 -3.53205 0
M  V30 1655 C 158.864 -0.4225 -4.55043 0
M  V30 1656 C 159.861 -1.27407 -5.04047 0
M  V30 1657 C 157.546 -0.58427 -4.9889 0
M  V30 1658 C 159.54 -2.27271 -5.95505 0
M  V30 1659 C 157.227 -1.58627 -5.90153 0
M  V30 1660 C 158.225 -2.42892 -6.38351 0
M  V30 1661 O 157.913 -3.41382 -7.27814 0
M  V30 1662 H 157.645 0.0408171 -0.674767 0
M  V30 1663 H 160.199 -0.5292 -1.98466 0
M  V30 1664 H 158.429 1.4681 -3.57748 0
M  V30 1665 H 160.118 1.18173 -3.88317 0
M  V30 1666 H 160.884 -1.16031 -4.70916 0
M  V30 1667 H 156.763 0.061851 -4.60959 0
M  V30 1668 H 160.307 -2.93079 -6.33049 0
M  V30 1669 H 156.204 -1.70048 -6.22699 0
M  V30 1670 H 156.972 -3.37173 -7.45826 0
M  V30 1671 N 159.635 1.57281 -0.100228 0
M  V30 1672 C 160.882 1.94537 0.562268 0
M  V30 1673 C 161.21 0.982315 1.67871 0
M  V30 1674 O 160.465 0.00280936 1.957 0
M  V30 1675 C 160.764 3.38305 1.15259 0
M  V30 1676 C 160.43 4.50618 0.159409 0
M  V30 1677 C 159.092 4.81066 -0.113741 0
M  V30 1678 C 161.444 5.18615 -0.518461 0
M  V30 1679 C 158.772 5.76835 -1.07137 0
M  V30 1680 C 161.124 6.15412 -1.46459 0
M  V30 1681 C 159.788 6.44262 -1.74592 0
M  V30 1682 H 159.058 0.711863 0.205748 0
M  V30 1683 H 161.705 1.90679 -0.17715 0
M  V30 1684 H 160.01 3.38766 1.96836 0
M  V30 1685 H 161.707 3.64435 1.67297 0
M  V30 1686 H 158.297 4.2689 0.382491 0
M  V30 1687 H 162.481 4.95264 -0.320581 0
M  V30 1688 H 157.737 5.975 -1.29628 0
M  V30 1689 H 161.911 6.67194 -1.99564 0
M  V30 1690 H 159.538 7.1828 -2.48953 0
M  V30 1691 N 161.113 -0.173488 1.56642 0
M  V30 1692 C 162.529 -0.525174 1.50712 0
M  V30 1693 C 162.729 -1.8476 0.804107 0
M  V30 1694 O 161.785 -2.49869 0.363574 0
M  V30 1695 C 163.098 -0.559937 2.95441 0
M  V30 1696 C 164.646 -0.647288 3.06234 0
M  V30 1697 C 165.121 -0.712963 4.52417 0
M  V30 1698 N 166.612 -0.775911 4.56655 0
M  V30 1699 C 167.347 -0.847264 5.67106 0
M  V30 1700 N 166.843 -0.879585 6.87194 0
M  V30 1701 N 168.636 -0.886117 5.55071 0
M  V30 1702 H 160.787 0.693681 2.00753 0
M  V30 1703 H 163.05 0.249841 0.914485 0
M  V30 1704 H 162.756 0.343049 3.50023 0
M  V30 1705 H 162.63 -1.40718 3.49969 0
M  V30 1706 H 165.017 -1.5407 2.51687 0
M  V30 1707 H 165.098 0.226586 2.54794 0
M  V30 1708 H 164.742 0.176183 5.07594 0
M  V30 1709 H 164.672 -1.60295 5.0161 0
M  V30 1710 H 167.163 -0.759304 3.70193 0
M  V30 1711 H 167.476 -0.935144 7.67121 0
M  V30 1712 H 165.821 -0.847898 6.89808 0
M  V30 1713 H 169.012 -0.857853 4.60172 0
M  V30 1714 H 169.185 -0.938263 6.41171 0
M  V30 1715 N 162.591 -1.51276 -0.441967 0
M  V30 1716 C 163.539 -1.72823 -1.55676 0
M  V30 1717 C 164.533 -0.59445 -1.58627 0
M  V30 1718 O 165.739 -0.775715 -1.62427 0
M  V30 1719 H 162.114 -0.545983 -0.517113 0
M  V30 1720 H 164.085 -2.6628 -1.34675 0
M  V30 1721 C 162.834 -1.86619 -2.93375 0
M  V30 1722 H 162.157 -2.73264 -2.91834 0
M  V30 1723 H 163.597 -2.05709 -3.70756 0
M  V30 1724 C 162.056 -0.624842 -3.31055 0
M  V30 1725 O 162.586 0.222636 -4.01083 0
M  V30 1726 N 160.792 -0.470288 -2.86769 0
M  V30 1727 H 160.339 -1.161 -2.29953 0
M  V30 1728 H 160.297 0.359051 -3.12343 0
M  V30 1729 N 164.069 0.697108 -1.41344 0
M  V30 1730 C 165.315 1.45796 -1.41828 0
M  V30 1731 C 165.67 1.92382 -0.0261743 0
M  V30 1732 O 164.963 1.66522 0.947688 0
M  V30 1733 C 165.157 2.68553 -2.35826 0
M  V30 1734 C 164.986 2.33975 -3.84039 0
M  V30 1735 C 163.756 2.24414 -4.52732 0
M  V30 1736 C 165.954 1.97048 -4.75054 0
M  V30 1737 N 163.936 1.82705 -5.86082 0
M  V30 1738 C 165.307 1.66086 -5.9734 0
M  V30 1739 C 167.362 1.83845 -4.62715 0
M  V30 1740 C 166.065 1.23246 -7.08663 0
M  V30 1741 C 168.091 1.4241 -5.73998 0
M  V30 1742 C 167.453 1.12357 -6.95381 0
M  V30 1743 H 163.552 0.530859 -0.574206 0
M  V30 1744 H 166.136 0.806674 -1.77203 0
M  V30 1745 H 164.307 3.31404 -2.02549 0
M  V30 1746 H 166.039 3.35015 -2.2704 0
M  V30 1747 H 162.794 2.4276 -4.0665 0
M  V30 1748 H 163.218 1.64337 -6.56751 0
M  V30 1749 H 167.86 2.05734 -3.69369 0
M  V30 1750 H 165.578 1.00102 -8.01876 0
M  V30 1751 H 169.164 1.32746 -5.66454 0
M  V30 1752 H 168.044 0.807795 -7.80028 0
M  V30 1753 N 165.547 1.27147 0.931209 0
M  V30 1754 C 166.497 1.06227 2.01742 0
M  V30 1755 C 167.481 -0.00859065 1.60898 0
M  V30 1756 O 168.673 0.209537 1.75755 0
M  V30 1757 C 165.802 0.707787 3.35924 0
M  V30 1758 C 164.888 1.81661 3.83223 0
M  V30 1759 N 165.279 3.05564 4.03069 0
M  V30 1760 C 163.577 1.70249 4.12227 0
M  V30 1761 C 164.278 3.77697 4.42403 0
M  V30 1762 N 163.254 3.0544 4.49675 0
M  V30 1763 H 167.056 2.00261 2.15111 0
M  V30 1764 H 164.57 1.1781 1.11779 0
M  V30 1765 H 166.567 0.539043 4.134 0
M  V30 1766 H 165.227 -0.224964 3.2392 0
M  V30 1767 H 166.238 3.41363 3.89476 0
M  V30 1768 H 162.915 0.840329 4.08956 0
M  V30 1769 H 164.305 4.84168 4.65866 0
M  V30 1770 N 167.025 -1.13721 1.09112 0
M  V30 1771 C 168.273 -1.84559 0.823562 0
M  V30 1772 C 168.594 -1.83754 -0.652658 0
M  V30 1773 O 167.864 -1.29102 -1.47342 0
M  V30 1774 H 166.444 -0.683376 0.301673 0
M  V30 1775 H 169.106 -1.37771 1.37859 0
M  V30 1776 H 168.202 -2.8917 1.17419 0
M  V30 1777 N 168.503 -0.877838 -1.30888 0
M  V30 1778 C 169.436 -0.283995 -2.26426 0
M  V30 1779 C 170.414 0.591361 -1.51465 0
M  V30 1780 O 171.598 0.54304 -1.80509 0
M  V30 1781 C 168.725 0.597129 -3.33395 0
M  V30 1782 C 167.771 -0.207937 -4.25993 0
M  V30 1783 S 168.604 -1.59158 -5.11301 0
M  V30 1784 C 169.76 -0.716791 -6.21782 0
M  V30 1785 H 169.993 -1.09383 -2.76446 0
M  V30 1786 H 167.526 -0.676828 -1.38775 0
M  V30 1787 H 169.484 1.09978 -3.95493 0
M  V30 1788 H 168.145 1.38099 -2.82113 0
M  V30 1789 H 167.338 0.464163 -5.01858 0
M  V30 1790 H 166.94 -0.642963 -3.68432 0
M  V30 1791 H 169.232 0.0692833 -6.77465 0
M  V30 1792 H 170.175 -1.44682 -6.93161 0
M  V30 1793 H 170.583 -0.280855 -5.63801 0
M  V30 1794 N 169.982 1.44106 -0.638065 0
M  V30 1795 C 170.93 2.3248 0.0748149 0
M  V30 1796 C 171.924 1.47746 0.828702 0
M  V30 1797 O 173.13 1.64049 0.740816 0
M  V30 1798 H 169.505 0.750771 0.0429686 0
M  V30 1799 H 171.476 2.90348 -0.688504 0
M  V30 1800 C 170.225 3.31843 1.03805 0
M  V30 1801 H 169.548 3.97059 0.467375 0
M  V30 1802 H 170.988 3.96345 1.50622 0
M  V30 1803 C 169.447 2.61291 2.1267 0
M  V30 1804 O 169.977 2.41702 3.20847 0
M  V30 1805 N 168.183 2.20915 1.88798 0
M  V30 1806 H 167.73 2.37047 1.00829 0
M  V30 1807 H 167.688 1.74038 2.61836 0
M  V30 1808 N 171.46 0.379036 1.52974 0
M  V30 1809 C 172.871 -0.0972525 1.86447 0
M  V30 1810 C 173.222 -1.47027 1.29914 0
M  V30 1811 O 172.347 -2.07135 0.626433 0
M  V30 1812 C 172.942 -0.183248 3.38304 0
M  V30 1813 C 171.501 -0.603812 3.71525 0
M  V30 1814 C 170.648 0.240632 2.76254 0
M  V30 1815 H 173.599 0.597316 1.4703 0
M  V30 1816 H 173.62 -1.00432 3.67006 0
M  V30 1817 H 173.132 0.816191 3.79421 0
M  V30 1818 H 171.233 -1.61099 3.35973 0
M  V30 1819 H 171.346 -0.369086 4.77676 0
M  V30 1820 H 169.71 -0.292548 2.53014 0
M  V30 1821 H 170.493 1.23786 3.20206 0
M  V30 1822 N 172.938 -1.57226 0.108567 0
M  V30 1823 C 174.354 -1.5766 -0.248058 0
M  V30 1824 C 174.554 -1.12063 -1.67464 0
M  V30 1825 O 173.61 -0.803236 -2.39383 0
M  V30 1826 C 174.923 -3.0069 -0.0242287 0
M  V30 1827 C 176.471 -3.12868 -0.0909372 0
M  V30 1828 C 176.946 -4.57879 0.105067 0
M  V30 1829 N 178.437 -4.63172 0.0506846 0
M  V30 1830 C 179.172 -5.73126 0.177396 0
M  V30 1831 N 178.668 -6.91866 0.359696 0
M  V30 1832 N 180.461 -5.61977 0.117709 0
M  V30 1833 H 172.612 -1.85169 1.04049 0
M  V30 1834 H 174.875 -0.85529 0.40888 0
M  V30 1835 H 174.581 -3.38299 0.961604 0
M  V30 1836 H 174.455 -3.6945 -0.76068 0
M  V30 1837 H 176.842 -2.75124 -1.06729 0
M  V30 1838 H 176.923 -2.46672 0.677225 0
M  V30 1839 H 176.567 -4.96321 1.07834 0
M  V30 1840 H 176.497 -5.22153 -0.682954 0
M  V30 1841 H 178.988 -3.778 -0.0871266 0
M  V30 1842 H 179.301 -7.71503 0.447529 0
M  V30 1843 H 177.646 -6.93874 0.395536 0
M  V30 1844 H 180.837 -4.68094 -0.0236741 0
M  V30 1845 H 181.01 -6.47627 0.219905 0
M  V30 1846 N 174.416 0.165178 -1.56732 0
M  V30 1847 C 175.326 1.22423 -2.00125 0
M  V30 1848 C 176.342 1.48084 -0.913619 0
M  V30 1849 O 177.518 1.60112 -1.22172 0
M  V30 1850 C 174.583 2.54197 -2.35764 0
M  V30 1851 C 173.644 2.36343 -3.58386 0
M  V30 1852 C 172.877 3.61834 -3.92316 0
M  V30 1853 O 173.1 4.67267 -3.27135 0
M  V30 1854 O 172.034 3.55579 -4.85641 0
M  V30 1855 H 175.86 0.885886 -2.90492 0
M  V30 1856 H 173.445 0.372518 -1.44681 0
M  V30 1857 H 175.327 3.3192 -2.59629 0
M  V30 1858 H 174.002 2.87598 -1.48557 0
M  V30 1859 H 172.909 1.56632 -3.39731 0
M  V30 1860 H 174.242 2.07865 -4.46154 0
M  V30 1861 N 175.894 1.51508 0.433938 0
M  V30 1862 C 177.305 1.56784 1.01369 0
M  V30 1863 C 177.656 0.393349 1.92217 0
M  V30 1864 O 176.781 -0.489441 2.10792 0
M  V30 1865 C 177.376 2.84144 1.8452 0
M  V30 1866 C 175.935 2.9198 2.37539 0
M  V30 1867 C 175.082 2.51482 1.16843 0
M  V30 1868 H 178.033 1.57236 0.215081 0
M  V30 1869 H 178.054 2.68098 2.70007 0
M  V30 1870 H 177.566 3.69607 1.18373 0
M  V30 1871 H 175.667 2.10955 3.0713 0
M  V30 1872 H 175.78 3.95704 2.70103 0
M  V30 1873 H 174.144 2.04758 1.51481 0
M  V30 1874 H 174.927 3.39293 0.523015 0
M  V30 1875 N 177.372 -0.689602 1.41712 0
M  V30 1876 C 178.335 -1.78521 1.43746 0
M  V30 1877 C 179.335 -1.57436 0.327191 0
M  V30 1878 O 180.525 -1.64 0.587348 0
M  V30 1879 C 177.657 -3.16971 1.25467 0
M  V30 1880 H 178.85 -1.78108 2.41283 0
M  V30 1881 H 176.403 -0.89781 1.27942 0
M  V30 1882 H 177.138 -3.23019 0.287948 0
M  V30 1883 H 176.923 -3.33678 2.05917 0
M  V30 1884 H 178.413 -3.96935 1.2974 0
M  V30 1885 N 178.85 -1.27639 -0.924453 0
M  V30 1886 C 180.096 -1.14336 -1.67497 0
M  V30 1887 C 180.429 0.309465 -1.91718 0
M  V30 1888 O 179.704 1.22608 -1.50989 0
M  V30 1889 C 179.987 -1.93096 -3.0395 0
M  V30 1890 C 179.84 -3.46381 -2.8695 0
M  V30 1891 C 181.159 -1.73798 -4.0433 0
M  V30 1892 H 178.278 -0.416728 -0.607871 0
M  V30 1893 H 180.92 -1.56832 -1.07256 0
M  V30 1894 H 179.07 -1.56982 -3.55372 0
M  V30 1895 H 180.742 -3.92343 -2.42621 0
M  V30 1896 H 178.985 -3.72557 -2.22225 0
M  V30 1897 H 179.656 -3.96735 -3.83804 0
M  V30 1898 H 182.132 -2.05293 -3.61931 0
M  V30 1899 H 181.008 -2.31294 -4.97789 0
M  V30 1900 H 181.269 -0.686725 -4.36734 0
M  V30 1901 N 180.328 1.1314 -1.09713 0
M  V30 1902 C 181.558 1.88048 -0.855656 0
M  V30 1903 C 181.966 1.79537 0.596919 0
M  V30 1904 O 181.309 1.16196 1.42282 0
M  V30 1905 C 181.371 3.38314 -1.21589 0
M  V30 1906 C 181.035 3.70605 -2.67397 0
M  V30 1907 C 182.032 3.69596 -3.65643 0
M  V30 1908 C 179.717 4.0017 -3.03593 0
M  V30 1909 C 181.711 3.977 -4.9811 0
M  V30 1910 C 179.398 4.27935 -4.36251 0
M  V30 1911 C 180.396 4.26685 -5.33318 0
M  V30 1912 O 180.084 4.53767 -6.63589 0
M  V30 1913 H 179.816 0.60208 -0.307368 0
M  V30 1914 H 182.37 1.44128 -1.46343 0
M  V30 1915 H 180.6 3.82752 -0.551177 0
M  V30 1916 H 182.289 3.94552 -0.953083 0
M  V30 1917 H 183.055 3.46826 -3.39023 0
M  V30 1918 H 178.934 4.00289 -2.2867 0
M  V30 1919 H 182.478 3.9664 -5.73866 0
M  V30 1920 H 178.375 4.50178 -4.62613 0
M  V30 1921 H 179.143 4.71422 -6.69107 0
M  V30 1922 N 181.806 0.884767 1.30421 0
M  V30 1923 C 183.222 0.57874 1.48737 0
M  V30 1924 C 183.422 -0.883567 1.81095 0
M  V30 1925 O 182.478 -1.6648 1.89844 0
M  V30 1926 C 183.791 1.49171 2.61091 0
M  V30 1927 C 185.339 1.49532 2.74971 0
M  V30 1928 C 185.814 2.39421 3.90438 0
M  V30 1929 N 187.305 2.37383 3.97748 0
M  V30 1930 C 188.04 3.03647 4.86401 0
M  V30 1931 N 187.536 3.79136 5.79852 0
M  V30 1932 N 189.329 2.9288 4.79768 0
M  V30 1933 H 181.48 1.83075 1.0769 0
M  V30 1934 H 183.743 0.783637 0.533495 0
M  V30 1935 H 183.449 2.53291 2.44001 0
M  V30 1936 H 183.323 1.20113 3.57565 0
M  V30 1937 H 185.71 0.46163 2.91467 0
M  V30 1938 H 185.791 1.8262 1.79119 0
M  V30 1939 H 185.435 3.42874 3.74699 0
M  V30 1940 H 185.365 2.03649 4.85628 0
M  V30 1941 H 187.856 1.82525 3.30897 0
M  V30 1942 H 188.169 4.26789 6.4426 0
M  V30 1943 H 186.514 3.83243 5.79784 0
M  V30 1944 H 189.705 2.33433 4.05742 0
M  V30 1945 H 189.878 3.448 5.4865 0
M  V30 1946 N 183.284 -1.43765 0.645699 0
M  V30 1947 C 184.524 -2.03776 0.159542 0
M  V30 1948 C 184.888 -1.49792 -1.2011 0
M  V30 1949 O 186.089 -2.01398 -1.78023 0
M  V30 1950 C 184.36 -3.57036 0.161251 0
M  V30 1951 S 185.919 -4.3804 -0.258159 0
M  V30 1952 H 182.737 -0.707717 0.0682454 0
M  V30 1953 H 185.339 -1.75941 0.852352 0
M  V30 1954 H 184.043 -3.9383 1.15439 0
M  V30 1955 H 183.574 -3.89503 -0.552339 0
M  V30 1956 H 185.589 -4.7302 -1.49889 0
M  V30 1957 N 184.763 -0.387143 -1.52771 0
M  V30 1958 C 186.011 0.195349 -2.01154 0
M  V30 1959 C 186.332 1.475 -1.27549 0
M  V30 1960 O 185.602 1.91878 -0.394924 0
M  V30 1961 H 184.182 0.075178 -0.743207 0
M  V30 1962 H 186.844 -0.518337 -1.87881 0
M  V30 1963 H 185.94 0.407096 -3.09434 0
M  V30 1964 N 186.241 1.57166 -0.116904 0
M  V30 1965 C 187.652 1.82169 0.408809 0
M  V30 1966 C 188.003 1.03393 1.66746 0
M  V30 1967 O 187.128 0.269886 2.1471 0
M  V30 1968 C 187.723 3.30429 0.748466 0
M  V30 1969 C 186.282 3.5612 1.21882 0
M  V30 1970 C 185.429 2.76374 0.226452 0
M  V30 1971 H 188.38 1.5497 -0.342063 0
M  V30 1972 H 188.401 3.44943 1.60607 0
M  V30 1973 H 187.913 3.87737 -0.167784 0
M  V30 1974 H 186.014 3.04168 2.15204 0
M  V30 1975 H 186.127 4.64705 1.16559 0
M  V30 1976 H 184.491 2.44515 0.713063 0
M  V30 1977 H 185.274 3.3644 -0.682859 0
M  V30 1978 N 187.719 -0.156864 1.56817 0
M  V30 1979 C 189.13 -0.717916 1.72345 0
M  V30 1980 C 189.481 -1.82124 0.729747 0
M  V30 1981 O 188.606 -2.16141 -0.105781 0
M  V30 1982 C 189.201 -1.30904 3.12489 0
M  V30 1983 C 187.76 -1.81676 3.29653 0
M  V30 1984 C 186.907 -0.701349 2.68284 0
M  V30 1985 H 189.858 0.0686989 1.58551 0
M  V30 1986 H 189.879 -2.17882 3.11942 0
M  V30 1987 H 189.391 -0.505796 3.8479 0
M  V30 1988 H 187.492 -2.64598 2.62333 0
M  V30 1989 H 187.605 -1.95226 4.3752 0
M  V30 1990 H 185.969 -1.12548 2.28484 0
M  V30 1991 H 186.752 0.0902846 3.43181 0
M  V30 1992 N 189.197 -1.51736 -0.425897 0
M  V30 1993 C 190.445 -1.64644 -1.17204 0
M  V30 1994 C 190.766 -0.370486 -1.91448 0
M  V30 1995 O 190.036 0.614088 -1.86026 0
M  V30 1996 H 188.616 -0.606819 -0.435638 0
M  V30 1997 H 191.278 -1.88713 -0.487177 0
M  V30 1998 H 190.374 -2.47958 -1.89534 0
M  V30 1999 N 190.675 0.682077 -1.42076 0
M  V30 2000 C 191.903 1.47057 -1.4554 0
M  V30 2001 C 192.318 1.8869 -0.0645779 0
M  V30 2002 O 191.675 1.57666 0.919115 0
M  V30 2003 C 191.726 2.72442 -2.37609 0
M  V30 2004 O 191.447 2.32559 -3.71279 0
M  V30 2005 C 192.948 3.66069 -2.50017 0
M  V30 2006 H 190.168 0.452737 -0.495248 0
M  V30 2007 H 192.712 0.838695 -1.8651 0
M  V30 2008 H 190.867 3.31835 -1.9991 0
M  V30 2009 H 191.281 3.13475 -4.20516 0
M  V30 2010 H 192.755 4.50792 -3.18576 0
M  V30 2011 H 193.232 4.11476 -1.53572 0
M  V30 2012 H 193.838 3.12572 -2.88407 0
M  V30 2013 N 192.153 1.28127 0.917671 0
M  V30 2014 C 193.063 1.13556 2.05286 0
M  V30 2015 C 194.079 0.0630914 1.73886 0
M  V30 2016 O 195.255 0.271598 1.9956 0
M  V30 2017 C 192.32 0.794676 3.3747 0
M  V30 2018 C 191.381 1.94909 3.82504 0
M  V30 2019 C 190.614 1.62437 5.0838 0
M  V30 2020 O 190.837 0.536905 5.67867 0
M  V30 2021 O 189.771 2.46677 5.4903 0
M  V30 2022 H 193.597 2.08844 2.20495 0
M  V30 2023 H 191.182 1.07409 1.03845 0
M  V30 2024 H 193.064 0.618344 4.16839 0
M  V30 2025 H 191.739 -0.128581 3.23445 0
M  V30 2026 H 190.646 2.18055 3.03978 0
M  V30 2027 H 191.979 2.85291 4.01086 0
M  V30 2028 N 193.631 -1.12557 1.10312 0
M  V30 2029 C 194.594 -2.16434 0.75424 0
M  V30 2030 C 195.594 -1.59278 -0.220685 0
M  V30 2031 O 196.784 -1.742 0.00230591 0
M  V30 2032 C 193.916 -3.40699 0.116987 0
M  V30 2033 H 195.109 -2.48811 1.67431 0
M  V30 2034 H 192.662 -1.27542 0.903475 0
M  V30 2035 H 193.397 -3.13921 -0.813877 0
M  V30 2036 H 193.182 -3.83459 0.818613 0
M  V30 2037 H 194.672 -4.17451 -0.111387 0
M  V30 2038 N 195.109 -0.891671 -1.2995 0
M  V30 2039 C 196.334 -0.527932 -2.00568 0
M  V30 2040 C 196.759 0.877969 -1.66353 0
M  V30 2041 O 196.117 1.58301 -0.883762 0
M  V30 2042 C 196.165 -0.717745 -3.53385 0
M  V30 2043 O 195.269 0.233376 -4.11739 0
M  V30 2044 H 194.61 -0.20722 -0.630837 0
M  V30 2045 H 197.14 -1.20105 -1.65638 0
M  V30 2046 H 197.15 -0.619307 -4.03272 0
M  V30 2047 H 195.825 -1.74276 -3.77625 0
M  V30 2048 H 194.402 0.0880706 -3.72796 0
M  V30 2049 N 196.587 1.43421 -0.653314 0
M  V30 2050 C 197.812 2.06678 -0.172846 0
M  V30 2051 C 198.237 1.48648 1.15262 0
M  V30 2052 O 197.595 0.596457 1.71208 0
M  V30 2053 C 197.643 3.60474 -0.0953184 0
M  V30 2054 O 196.747 4.01487 0.942442 0
M  V30 2055 H 196.088 0.657181 -0.0949155 0
M  V30 2056 H 198.618 1.83925 -0.896265 0
M  V30 2057 H 198.628 4.07905 0.0879728 0
M  V30 2058 H 197.303 4.02088 -1.06291 0
M  V30 2059 H 195.88 3.65646 0.731932 0
M  V30 2060 N 198.065 0.39524 1.52563 0
M  V30 2061 C 199.342 -0.242908 1.94086 0
M  V30 2062 C 199.722 -1.63841 1.33114 0
M  V30 2063 O 199.07 -2.22928 0.501529 0
M  V30 2064 C 199.28 -0.26327 3.48006 0
M  V30 2065 C 200.628 -0.489354 4.21771 0
M  V30 2066 O 201.652 -0.343226 3.54543 0
M  V30 2067 O 200.511 -0.776169 5.4096 0
M  V30 2068 H 197.605 -0.152536 0.812811 0
M  V30 2069 H 200.151 0.450178 1.6362 0
M  V30 2070 H 198.923 0.713985 3.84731 0
M  V30 2071 H 198.546 -1.00103 3.84792 0
M  V30 2072 N 199.544 -1.57102 0.125237 0
M  V30 2073 C 200.476 -2.12726 -0.853237 0
M  V30 2074 C 201.489 -1.07145 -1.22571 0
M  V30 2075 O 202.678 -1.34497 -1.17358 0
M  V30 2076 C 199.778 -2.61709 -2.15317 0
M  V30 2077 C 198.951 -3.91456 -1.95143 0
M  V30 2078 C 198.01 -4.25973 -3.08923 0
M  V30 2079 O 197.036 -4.94682 -2.81564 0
M  V30 2080 N 198.238 -3.83795 -4.35524 0
M  V30 2081 H 201.003 -2.97307 -0.377964 0
M  V30 2082 H 198.564 -1.61792 -0.0590011 0
M  V30 2083 H 200.556 -2.81826 -2.90441 0
M  V30 2084 H 199.126 -1.81974 -2.54174 0
M  V30 2085 H 198.346 -3.80185 -1.04177 0
M  V30 2086 H 199.634 -4.76283 -1.78976 0
M  V30 2087 H 199.032 -3.2839 -4.60626 0
M  V30 2088 H 197.589 -4.09008 -5.07499 0
M  V30 2089 N 201.022 0.148545 -1.56898 0
M  V30 2090 C 202.25 0.876389 -1.87422 0
M  V30 2091 C 202.665 1.74809 -0.713256 0
M  V30 2092 O 202.022 1.79725 0.317025 0
M  V30 2093 C 202.073 1.73438 -3.17178 0
M  V30 2094 O 201.794 0.897809 -4.28802 0
M  V30 2095 C 203.295 2.56993 -3.61205 0
M  V30 2096 H 200.515 0.253489 -0.621277 0
M  V30 2097 H 203.059 0.141798 -2.04008 0
M  V30 2098 H 201.214 2.42205 -3.0235 0
M  V30 2099 H 201.628 1.48672 -5.02988 0
M  V30 2100 H 203.102 3.12773 -4.54838 0
M  V30 2101 H 203.579 3.32958 -2.86419 0
M  V30 2102 H 204.185 1.9352 -3.78722 0
M  V30 2103 N 202.5 1.5196 0.417844 0
M  V30 2104 C 203.463 1.74065 1.49111 0
M  V30 2105 C 204.463 0.610537 1.48758 0
M  V30 2106 O 205.653 0.87832 1.50437 0
M  V30 2107 C 202.785 1.81502 2.88565 0
M  V30 2108 H 203.978 2.69869 1.30807 0
M  V30 2109 H 201.531 1.42244 0.647785 0
M  V30 2110 H 202.266 0.875813 3.1225 0
M  V30 2111 H 202.051 2.63651 2.90225 0
M  V30 2112 H 203.541 2.00376 3.66387 0
M  V30 2113 N 203.978 -0.674533 1.42435 0
M  V30 2114 C 204.91 -1.80005 1.41883 0
M  V30 2115 C 205.923 -1.59667 0.31787 0
M  V30 2116 O 207.112 -1.68781 0.580973 0
M  V30 2117 C 204.212 -3.17114 1.19549 0
M  V30 2118 C 203.385 -3.64299 2.42084 0
M  V30 2119 C 202.444 -4.80142 2.15291 0
M  V30 2120 O 201.47 -4.90673 2.88493 0
M  V30 2121 N 202.672 -5.68869 1.1562 0
M  V30 2122 H 205.437 -1.80964 2.38898 0
M  V30 2123 H 202.998 -0.857633 1.37318 0
M  V30 2124 H 204.99 -3.92267 0.995417 0
M  V30 2125 H 203.56 -3.11053 0.310569 0
M  V30 2126 H 202.78 -2.79822 2.77657 0
M  V30 2127 H 204.068 -3.92567 3.23679 0
M  V30 2128 H 203.466 -5.63012 0.550765 0
M  V30 2129 H 202.023 -6.43833 1.016 0
M  V30 2130 N 205.456 -1.28612 -0.910864 0
M  V30 2131 C 206.704 -1.15705 -1.65701 0
M  V30 2132 C 207.025 0.29416 -1.92769 0
M  V30 2133 O 206.295 1.20331 -1.54588 0
M  V30 2134 H 204.875 -0.425216 -0.614167 0
M  V30 2135 H 207.537 -1.61381 -1.0928 0
M  V30 2136 H 206.633 -1.6988 -2.61815 0
M  V30 2137 N 206.934 1.1197 -1.10907 0
M  V30 2138 C 207.867 2.16998 -0.706192 0
M  V30 2139 C 208.845 1.59903 0.294897 0
M  V30 2140 O 210.029 1.87513 0.192636 0
M  V30 2141 C 207.156 3.38673 -0.0427664 0
M  V30 2142 C 206.202 4.14414 -1.00811 0
M  V30 2143 S 207.035 4.72079 -2.52789 0
M  V30 2144 C 208.191 5.97083 -1.87731 0
M  V30 2145 H 208.424 2.50837 -1.59587 0
M  V30 2146 H 205.957 1.23508 -0.926555 0
M  V30 2147 H 207.915 4.09142 0.333668 0
M  V30 2148 H 206.576 3.03105 0.823788 0
M  V30 2149 H 205.769 5.016 -0.491259 0
M  V30 2150 H 205.371 3.49678 -1.3267 0
M  V30 2151 H 207.663 6.66599 -1.21044 0
M  V30 2152 H 208.606 6.53403 -2.72892 0
M  V30 2153 H 209.014 5.4837 -1.33979 0
M  V30 2154 N 208.412 0.89855 1.29475 0
M  V30 2155 C 209.344 0.332726 2.26772 0
M  V30 2156 C 210.357 -0.520323 1.54261 0
M  V30 2157 O 211.546 -0.337668 1.75277 0
M  V30 2158 C 208.646 -0.544334 3.345 0
M  V30 2159 C 207.819 0.282728 4.36485 0
M  V30 2160 C 206.878 -0.526982 5.23555 0
M  V30 2161 O 205.904 0.0551165 5.69173 0
M  V30 2162 N 207.106 -1.83331 5.5079 0
M  V30 2163 H 209.871 1.16897 2.75962 0
M  V30 2164 H 207.432 0.762919 1.42798 0
M  V30 2165 H 209.424 -1.09239 3.89678 0
M  V30 2166 H 207.994 -1.28127 2.85136 0
M  V30 2167 H 207.214 1.01221 3.80983 0
M  V30 2168 H 208.502 0.84918 5.01664 0
M  V30 2169 H 207.9 -2.32898 5.15534 0
M  V30 2170 H 206.457 -2.32852 6.08788 0
M  V30 2171 N 209.89 -1.43072 0.660911 0
M  V30 2172 C 210.82 -2.33497 -0.0122829 0
M  V30 2173 C 211.801 -1.49903 -0.803925 0
M  V30 2174 O 212.986 -1.78546 -0.763864 0
M  V30 2175 C 210.116 -3.33363 -0.973994 0
M  V30 2176 C 209.07 -4.27003 -0.291928 0
M  V30 2177 C 208.396 -5.16967 -1.36562 0
M  V30 2178 C 209.696 -5.15816 0.820462 0
M  V30 2179 H 211.39 -2.90038 0.742873 0
M  V30 2180 H 208.936 -1.39461 0.358688 0
M  V30 2181 H 210.889 -3.95524 -1.45392 0
M  V30 2182 H 209.613 -2.75095 -1.7604 0
M  V30 2183 H 208.272 -3.66217 0.167623 0
M  V30 2184 H 207.92 -4.55034 -2.14366 0
M  V30 2185 H 207.62 -5.80441 -0.914454 0
M  V30 2186 H 209.144 -5.82003 -1.84675 0
M  V30 2187 H 210.558 -5.71742 0.422366 0
M  V30 2188 H 208.955 -5.8805 1.19656 0
M  V30 2189 H 210.025 -4.55045 1.67518 0
M  V30 2190 N 211.368 -0.403325 -1.52352 0
M  V30 2191 C 212.298 0.416205 -2.29761 0
M  V30 2192 C 213.279 1.05123 -1.33728 0
M  V30 2193 O 214.464 1.06134 -1.62632 0
M  V30 2194 C 211.594 1.53624 -3.11475 0
M  V30 2195 C 210.548 1.02653 -4.15507 0
M  V30 2196 C 209.874 2.23971 -4.85532 0
M  V30 2197 C 211.174 0.08463 -5.22231 0
M  V30 2198 H 212.868 -0.229701 -2.98518 0
M  V30 2199 H 210.414 -0.111913 -1.43564 0
M  V30 2200 H 212.367 2.1165 -3.64393 0
M  V30 2201 H 211.091 2.20994 -2.40477 0
M  V30 2202 H 209.75 0.46871 -3.63591 0
M  V30 2203 H 209.398 2.89883 -4.11068 0
M  V30 2204 H 209.098 1.90521 -5.55856 0
M  V30 2205 H 210.622 2.82614 -5.41259 0
M  V30 2206 H 212.036 0.573509 -5.70424 0
M  V30 2207 H 210.433 -0.160783 -5.99885 0
M  V30 2208 H 211.503 -0.86237 -4.7717 0
M  V30 2209 N 212.846 1.57033 -0.133567 0
M  V30 2210 C 214.123 1.87256 0.56522 0
M  V30 2211 C 214.503 1.03726 1.83859 0
M  V30 2212 O 213.851 0.120247 2.28183 0
M  V30 2213 C 214.061 3.3865 0.843636 0
M  V30 2214 C 215.409 4.07574 1.19032 0
M  V30 2215 O 216.433 3.43752 0.933429 0
M  V30 2216 O 215.292 5.20259 1.67312 0
M  V30 2217 H 212.386 0.775678 0.286796 0
M  V30 2218 H 214.932 1.68855 -0.169168 0
M  V30 2219 H 213.704 3.91257 -0.0581149 0
M  V30 2220 H 213.327 3.62532 1.63268 0
M  V30 2221 N 214.325 -0.140222 1.56975 0
M  V30 2222 C 215.736 -0.699596 1.73097 0
M  V30 2223 C 216.087 -1.8134 0.749022 0
M  V30 2224 O 215.212 -2.16241 -0.0828503 0
M  V30 2225 C 215.807 -1.27582 3.1386 0
M  V30 2226 C 214.366 -1.78169 3.31561 0
M  V30 2227 C 213.513 -0.672855 2.69013 0
M  V30 2228 H 216.464 0.0855115 1.58469 0
M  V30 2229 H 216.485 -2.14561 3.14235 0
M  V30 2230 H 215.997 -0.464955 3.85305 0
M  V30 2231 H 214.098 -2.61801 2.65124 0
M  V30 2232 H 214.211 -1.90574 4.39566 0
M  V30 2233 H 212.575 -1.10118 2.29665 0
M  V30 2234 H 213.358 0.126679 3.43066 0
M  V30 2235 N 215.803 -1.52179 -0.40978 0
M  V30 2236 C 216.766 -1.74853 -1.48186 0
M  V30 2237 C 217.766 -0.618417 -1.48433 0
M  V30 2238 O 218.956 -0.886286 -1.49969 0
M  V30 2239 C 216.088 -1.8303 -2.87598 0
M  V30 2240 H 217.281 -2.70559 -1.29374 0
M  V30 2241 H 214.834 -1.42586 -0.640233 0
M  V30 2242 H 215.569 -0.89236 -3.11781 0
M  V30 2243 H 215.354 -2.65187 -2.88822 0
M  V30 2244 H 216.844 -2.02316 -3.65319 0
M  V30 2245 N 217.281 0.66697 -1.42791 0
M  V30 2246 C 218.506 1.46004 -1.47301 0
M  V30 2247 C 218.931 1.87894 -0.0880317 0
M  V30 2248 O 218.289 1.56502 0.915253 0
M  V30 2249 C 218.337 2.68031 -2.41229 0
M  V30 2250 O 217.441 3.6659 -1.88906 0
M  V30 2251 H 216.782 0.43832 -0.49877 0
M  V30 2252 H 219.312 0.817391 -1.87563 0
M  V30 2253 H 219.322 3.1601 -2.58073 0
M  V30 2254 H 217.997 2.36883 -3.41847 0
M  V30 2255 H 216.574 3.25661 -1.81656 0
M  V30 2256 N 218.759 1.29093 0.90403 0
M  V30 2257 C 220.006 1.16813 1.65411 0
M  V30 2258 C 220.334 -0.28128 1.92455 0
M  V30 2259 O 219.589 -1.22006 1.53013 0
M  V30 2260 C 219.888 1.92224 3.01305 0
M  V30 2261 C 219.554 3.41968 2.93885 0
M  V30 2262 C 218.216 3.82807 2.91569 0
M  V30 2263 C 220.568 4.37409 2.83413 0
M  V30 2264 C 217.896 5.1741 2.76594 0
M  V30 2265 C 220.248 5.72097 2.69977 0
M  V30 2266 C 218.912 6.12199 2.66024 0
M  V30 2267 H 218.182 0.42745 0.605283 0
M  V30 2268 H 220.829 1.59981 1.05254 0
M  V30 2269 H 219.134 1.41635 3.65304 0
M  V30 2270 H 220.831 1.80131 3.58265 0
M  V30 2271 H 217.421 3.09504 2.96488 0
M  V30 2272 H 221.605 4.06813 2.84283 0
M  V30 2273 H 216.861 5.47596 2.71935 0
M  V30 2274 H 221.035 6.45704 2.60844 0
M  V30 2275 H 218.662 7.16448 2.54178 0
M  V30 2276 N 220.237 -1.11381 1.11499 0
M  V30 2277 C 221.147 -2.21019 0.786628 0
M  V30 2278 C 222.163 -1.72597 -0.220507 0
M  V30 2279 O 223.339 -2.01321 -0.0565251 0
M  V30 2280 C 220.404 -3.459 0.235333 0
M  V30 2281 C 219.465 -4.09107 1.30115 0
M  V30 2282 C 218.698 -5.28027 0.776068 0
M  V30 2283 O 218.921 -5.6904 -0.393661 0
M  V30 2284 O 217.855 -5.81835 1.54114 0
M  V30 2285 H 221.681 -2.51521 1.70209 0
M  V30 2286 H 219.266 -1.19928 0.890928 0
M  V30 2287 H 221.148 -4.21346 -0.067715 0
M  V30 2288 H 219.823 -3.17049 -0.652828 0
M  V30 2289 H 218.73 -3.35391 1.65722 0
M  V30 2290 H 220.063 -4.42139 2.16273 0
M  V30 2291 N 221.715 -0.905404 -1.28997 0
M  V30 2292 C 222.945 -0.549049 -1.99171 0
M  V30 2293 C 223.353 0.87203 -1.67906 0
M  V30 2294 O 222.696 1.58796 -0.923561 0
M  V30 2295 C 222.758 -0.668306 -3.53234 0
M  V30 2296 C 222.422 -2.0574 -4.08069 0
M  V30 2297 C 223.419 -3.0292 -4.22534 0
M  V30 2298 C 221.104 -2.36833 -4.42962 0
M  V30 2299 C 223.098 -4.29314 -4.71135 0
M  V30 2300 C 220.785 -3.63467 -4.91258 0
M  V30 2301 C 221.783 -4.59522 -5.053 0
M  V30 2302 O 221.471 -5.83907 -5.52546 0
M  V30 2303 H 221.203 -0.208784 -0.64295 0
M  V30 2304 H 223.757 -1.21836 -1.65363 0
M  V30 2305 H 221.987 0.0580547 -3.86656 0
M  V30 2306 H 223.676 -0.320273 -4.04634 0
M  V30 2307 H 224.442 -2.80216 -3.95859 0
M  V30 2308 H 220.321 -1.62824 -4.31288 0
M  V30 2309 H 223.865 -5.04293 -4.8201 0
M  V30 2310 H 219.762 -3.86 -5.17372 0
M  V30 2311 H 220.53 -5.86578 -5.70849 0
M  V30 2312 N 223.193 1.4272 -0.668489 0
M  V30 2313 C 224.123 2.335 -0.000100175 0
M  V30 2314 C 225.104 1.50328 0.795964 0
M  V30 2315 O 226.289 1.78949 0.754385 0
M  V30 2316 C 223.419 3.33874 0.956302 0
M  V30 2317 C 222.373 4.27152 0.269278 0
M  V30 2318 C 221.699 5.17684 1.33818 0
M  V30 2319 C 222.999 5.15373 -0.847805 0
M  V30 2320 H 224.693 2.89639 -0.758244 0
M  V30 2321 H 222.239 1.39269 -0.366079 0
M  V30 2322 H 224.192 3.9629 1.43292 0
M  V30 2323 H 222.916 2.76025 1.74579 0
M  V30 2324 H 221.575 3.66123 -0.187042 0
M  V30 2325 H 221.223 4.56165 2.1195 0
M  V30 2326 H 220.923 5.80918 0.883659 0
M  V30 2327 H 222.447 5.82974 1.81586 0
M  V30 2328 H 223.861 5.7151 -0.452681 0
M  V30 2329 H 222.258 5.87407 -1.22773 0
M  V30 2330 H 223.328 4.5415 -1.69929 0
M  V30 2331 N 224.671 0.411399 1.52136 0
M  V30 2332 C 225.918 -0.163645 2.01838 0
M  V30 2333 C 226.246 -1.4495 1.29691 0
M  V30 2334 O 225.501 -1.91725 0.392431 0
M  V30 2335 C 225.8 -0.455872 3.54481 0
M  V30 2336 C 225.466 0.741055 4.44769 0
M  V30 2337 C 224.128 1.06936 4.69167 0
M  V30 2338 C 226.48 1.54075 4.97906 0
M  V30 2339 C 223.808 2.19851 5.43951 0
M  V30 2340 C 226.16 2.66067 5.73926 0
M  V30 2341 C 224.824 2.99381 5.96596 0
M  V30 2342 H 224.094 -0.0598821 0.738576 0
M  V30 2343 H 226.741 0.553283 1.83333 0
M  V30 2344 H 225.046 -1.2544 3.71177 0
M  V30 2345 H 226.743 -0.913802 3.90449 0
M  V30 2346 H 223.333 0.475192 4.25958 0
M  V30 2347 H 227.517 1.30033 4.78963 0
M  V30 2348 H 222.773 2.46006 5.59724 0
M  V30 2349 H 226.947 3.28419 6.14096 0
M  V30 2350 H 224.574 3.86992 6.54325 0
M  V30 2351 N 226.149 -1.5696 0.141893 0
M  V30 2352 C 227.059 -2.20066 -0.812905 0
M  V30 2353 C 228.075 -1.18344 -1.27557 0
M  V30 2354 O 229.251 -1.50902 -1.33381 0
M  V30 2355 C 226.316 -2.80583 -2.03652 0
M  V30 2356 C 225.377 -3.97414 -1.62359 0
M  V30 2357 C 224.61 -4.55036 -2.78887 0
M  V30 2358 O 224.833 -4.11538 -3.94959 0
M  V30 2359 O 223.767 -5.45376 -2.54653 0
M  V30 2360 H 227.593 -3.02157 -0.305746 0
M  V30 2361 H 225.178 -1.49159 -0.0848799 0
M  V30 2362 H 227.06 -3.19067 -2.75272 0
M  V30 2363 H 225.735 -2.01508 -2.5333 0
M  V30 2364 H 224.642 -3.63656 -0.877775 0
M  V30 2365 H 225.975 -4.77994 -1.17401 0
M  V30 2366 N 227.627 0.131896 -1.57047 0
M  V30 2367 C 228.559 1.1878 -1.9602 0
M  V30 2368 C 229.572 1.38363 -0.857875 0
M  V30 2369 O 230.761 1.37666 -1.13623 0
M  V30 2370 C 227.861 2.55008 -2.23213 0
M  V30 2371 C 227.034 2.56201 -3.54513 0
M  V30 2372 C 226.093 3.7408 -3.70069 0
M  V30 2373 O 225.119 3.58258 -4.42312 0
M  V30 2374 N 226.321 4.92137 -3.07866 0
M  V30 2375 H 229.086 0.85639 -2.87204 0
M  V30 2376 H 226.647 0.321309 -1.5868 0
M  V30 2377 H 228.639 3.32404 -2.30846 0
M  V30 2378 H 227.209 2.80382 -1.3822 0
M  V30 2379 H 226.429 1.64613 -3.58185 0
M  V30 2380 H 227.717 2.54043 -4.4084 0
M  V30 2381 H 227.115 5.07895 -2.49116 0
M  V30 2382 H 225.672 5.67254 -3.21039 0
M  V30 2383 N 229.106 1.52395 0.401703 0
M  V30 2384 C 230.354 1.66488 1.14569 0
M  V30 2385 C 230.675 0.400897 1.90835 0
M  V30 2386 O 229.945 -0.584415 1.8698 0
M  V30 2387 H 228.525 0.613672 0.425929 0
M  V30 2388 H 231.187 1.89464 0.457093 0
M  V30 2389 H 230.283 2.50942 1.85566 0
M  V30 2390 N 230.584 -0.659388 1.43143 0
M  V30 2391 C 231.531 -1.77249 1.47822 0
M  V30 2392 C 232.501 -1.62818 0.328558 0
M  V30 2393 O 233.686 -1.83151 0.534838 0
M  V30 2394 C 230.826 -3.15371 1.40126 0
M  V30 2395 C 229.939 -3.4098 2.65249 0
M  V30 2396 C 229.074 -4.68915 2.49584 0
M  V30 2397 C 228.113 -4.87608 3.70006 0
M  V30 2398 N 227.25 -6.06796 3.53189 0
M  V30 2399 H 232.09 -1.72584 2.42938 0
M  V30 2400 H 229.627 -0.842297 1.20598 0
M  V30 2401 H 231.585 -3.9521 1.33659 0
M  V30 2402 H 230.215 -3.19121 0.485964 0
M  V30 2403 H 229.267 -2.55282 2.8202 0
M  V30 2404 H 230.579 -3.50681 3.54717 0
M  V30 2405 H 229.733 -5.56871 2.4079 0
M  V30 2406 H 228.472 -4.61524 1.5763 0
M  V30 2407 H 227.477 -3.9809 3.79215 0
M  V30 2408 H 228.702 -4.96834 4.62961 0
M  V30 2409 H 226.648 -6.00549 2.63965 0
M  V30 2410 H 226.565 -6.17428 4.36255 0
M  V30 2411 H 227.833 -6.9739 3.48236 0
M  V30 2412 N 232.062 -1.29571 -0.897171 0
M  V30 2413 C 233.012 -1.11539 -1.98855 0
M  V30 2414 C 233.996 -0.0340716 -1.60864 0
M  V30 2415 O 235.188 -0.256062 -1.75138 0
M  V30 2416 C 232.317 -0.796603 -3.3393 0
M  V30 2417 C 231.403 -1.91758 -3.78272 0
M  V30 2418 N 231.794 -3.16143 -3.94826 0
M  V30 2419 C 230.092 -1.81119 -4.07568 0
M  V30 2420 C 230.793 -3.89293 -4.32233 0
M  V30 2421 N 229.769 -3.17255 -4.41419 0
M  V30 2422 H 233.571 -2.05894 -2.09726 0
M  V30 2423 H 231.085 -1.20732 -1.08616 0
M  V30 2424 H 233.082 -0.648459 -4.11826 0
M  V30 2425 H 231.742 0.139003 -3.24402 0
M  V30 2426 H 232.753 -3.5157 -3.80288 0
M  V30 2427 H 229.43 -0.948461 -4.06584 0
M  V30 2428 H 230.82 -4.9635 -4.52865 0
M  V30 2429 N 233.54 1.10788 -1.12088 0
M  V30 2430 C 234.45 2.20599 -0.798338 0
M  V30 2431 C 235.466 1.72712 0.21135 0
M  V30 2432 O 236.642 2.01348 0.0458477 0
M  V30 2433 C 233.707 3.45771 -0.253674 0
M  V30 2434 C 232.768 4.08411 -1.32283 0
M  V30 2435 C 232.001 5.27608 -0.80406 0
M  V30 2436 O 232.224 5.69241 0.363478 0
M  V30 2437 O 231.158 5.8101 -1.57198 0
M  V30 2438 H 234.984 2.50614 -1.7154 0
M  V30 2439 H 232.569 1.19454 -0.897275 0
M  V30 2440 H 234.451 4.21376 0.0453691 0
M  V30 2441 H 233.126 3.1739 0.636005 0
M  V30 2442 H 232.033 3.34507 -1.67499 0
M  V30 2443 H 233.366 4.40986 -2.18614 0
M  V30 2444 N 235.018 0.912232 1.28515 0
M  V30 2445 C 236.265 0.544599 1.95039 0
M  V30 2446 C 236.593 -0.911435 1.71823 0
M  V30 2447 O 235.848 -1.66317 1.03137 0
M  V30 2448 C 236.147 0.798392 3.48368 0
M  V30 2449 C 235.813 2.23374 3.91682 0
M  V30 2450 C 234.475 2.62617 4.03219 0
M  V30 2451 C 236.827 3.16786 4.13879 0
M  V30 2452 C 234.155 3.94429 4.3433 0
M  V30 2453 C 236.507 4.48161 4.46469 0
M  V30 2454 C 235.171 4.8726 4.56217 0
M  V30 2455 H 234.441 0.199283 0.7137 0
M  V30 2456 H 237.088 1.15327 1.52879 0
M  V30 2457 H 235.393 0.106908 3.91654 0
M  V30 2458 H 237.09 0.493141 3.97956 0
M  V30 2459 H 233.68 1.91922 3.83228 0
M  V30 2460 H 237.864 2.87677 4.0442 0
M  V30 2461 H 233.12 4.24426 4.40082 0
M  V30 2462 H 237.294 5.20559 4.62592 0
M  V30 2463 H 234.921 5.89431 4.80078 0
M  V30 2464 N 236.496 -1.42363 0.676048 0
M  V30 2465 C 237.742 -2.0182 0.199125 0
M  V30 2466 C 238.075 -1.53339 -1.19168 0
M  V30 2467 O 237.35 -0.736124 -1.80032 0
M  V30 2468 C 237.633 -3.59331 0.235144 0
M  V30 2469 C 237.486 -4.17989 1.66149 0
M  V30 2470 C 238.805 -4.3813 -0.41595 0
M  V30 2471 H 235.924 -0.733293 0.0738311 0
M  V30 2472 H 238.566 -1.69368 0.86107 0
M  V30 2473 H 236.716 -3.87109 -0.328487 0
M  V30 2474 H 238.388 -4.0116 2.27747 0
M  V30 2475 H 236.631 -3.7377 2.20178 0
M  V30 2476 H 237.302 -5.27126 1.63837 0
M  V30 2477 H 239.778 -4.16051 0.0638529 0
M  V30 2478 H 238.654 -5.47717 -0.360115 0
M  V30 2479 H 238.915 -4.16101 -1.49373 0
M  V30 2480 N 237.974 -0.419461 -1.51915 0
M  V30 2481 C 238.922 0.415502 -2.28859 0
M  V30 2482 C 239.916 1.03674 -1.3397 0
M  V30 2483 O 241.122 0.973757 -1.51387 0
M  V30 2484 H 237.497 0.152786 -0.736315 0
M  V30 2485 H 239.468 -0.254531 -2.97312 0
M  V30 2486 C 238.217 1.51425 -3.12995 0
M  V30 2487 H 237.54 1.04556 -3.85886 0
M  V30 2488 H 238.98 2.07208 -3.6992 0
M  V30 2489 C 237.439 2.48745 -2.27217 0
M  V30 2490 O 237.969 3.52871 -1.9195 0
M  V30 2491 N 236.175 2.19202 -1.90785 0
M  V30 2492 H 235.722 1.34556 -2.19664 0
M  V30 2493 H 235.68 2.84561 -1.33687 0
M  V30 2494 N 239.452 1.56882 -0.150215 0
M  V30 2495 C 240.729 1.87844 0.545327 0
M  V30 2496 C 241.109 1.0567 1.82749 0
M  V30 2497 O 240.457 0.144442 2.28043 0
M  V30 2498 C 240.667 3.39526 0.80767 0
M  V30 2499 C 242.015 4.08814 1.14703 0
M  V30 2500 O 243.039 3.44723 0.896917 0
M  V30 2501 O 241.898 5.22004 1.61784 0
M  V30 2502 H 238.992 0.778677 0.278553 0
M  V30 2503 H 241.538 1.68666 -0.187068 0
M  V30 2504 H 240.31 3.91173 -0.0996096 0
M  V30 2505 H 239.933 3.64243 1.59413 0
M  V30 2506 N 240.93 -0.123565 1.57115 0
M  V30 2507 C 242.176 -0.833386 1.84885 0
M  V30 2508 C 242.509 -1.79742 0.735292 0
M  V30 2509 O 241.784 -1.92764 -0.25925 0
M  V30 2510 C 242.067 -1.5873 3.23228 0
M  V30 2511 C 241.92 -0.643183 4.45178 0
M  V30 2512 C 243.239 -2.54453 3.59085 0
M  V30 2513 H 240.358 -0.301518 0.6725 0
M  V30 2514 H 243 -0.097778 1.89748 0
M  V30 2515 H 241.15 -2.21438 3.19214 0
M  V30 2516 H 242.822 -0.0253015 4.61293 0
M  V30 2517 H 241.065 0.0456139 4.33776 0
M  V30 2518 H 241.736 -1.20724 5.38637 0
M  V30 2519 H 244.212 -2.01853 3.63861 0
M  V30 2520 H 243.088 -3.04238 4.5687 0
M  V30 2521 H 243.349 -3.36906 2.86264 0
M  V30 2522 N 242.408 -1.52605 -0.393616 0
M  V30 2523 C 243.371 -1.76415 -1.46323 0
M  V30 2524 C 244.371 -0.634126 -1.47768 0
M  V30 2525 O 245.561 -0.902142 -1.4902 0
M  V30 2526 C 242.693 -1.8607 -2.85641 0
M  V30 2527 H 243.886 -2.71916 -1.26498 0
M  V30 2528 H 241.439 -1.43257 -0.625073 0
M  V30 2529 H 242.174 -0.925378 -3.10817 0
M  V30 2530 H 241.959 -2.68235 -2.85993 0
M  V30 2531 H 243.449 -2.06179 -3.63153 0
M  V30 2532 N 243.887 0.651787 -1.4349 0
M  V30 2533 C 245.112 1.44434 -1.48841 0
M  V30 2534 C 245.537 1.8779 -0.107955 0
M  V30 2535 O 244.895 1.57464 0.898602 0
M  V30 2536 C 244.943 2.65458 -2.44059 0
M  V30 2537 O 244.047 3.64566 -1.92784 0
M  V30 2538 H 243.388 0.433005 -0.503391 0
M  V30 2539 H 245.918 0.797451 -1.88419 0
M  V30 2540 H 245.928 3.13255 -2.6141 0
M  V30 2541 H 244.603 2.33244 -3.4434 0
M  V30 2542 H 243.18 3.23716 -1.851 0
M  V30 2543 N 245.365 1.30045 0.890287 0
M  V30 2544 C 246.295 1.18541 2.01172 0
M  V30 2545 C 247.276 0.0773356 1.69924 0
M  V30 2546 O 248.461 0.25845 1.92473 0
M  V30 2547 C 245.591 0.870941 3.36202 0
M  V30 2548 C 244.545 1.93637 3.81692 0
M  V30 2549 C 243.871 1.475 5.13953 0
M  V30 2550 C 245.171 3.34666 4.00994 0
M  V30 2551 H 246.865 2.12359 2.11054 0
M  V30 2552 H 244.411 1.02238 1.01407 0
M  V30 2553 H 246.364 0.777141 4.14172 0
M  V30 2554 H 245.088 -0.102926 3.26438 0
M  V30 2555 H 243.747 2.01972 3.05946 0
M  V30 2556 H 243.395 0.489551 5.00612 0
M  V30 2557 H 243.095 2.1876 5.4536 0
M  V30 2558 H 244.619 1.39489 5.94454 0
M  V30 2559 H 246.033 3.2912 4.69417 0
M  V30 2560 H 244.43 4.03966 4.43769 0
M  V30 2561 H 245.5 3.76949 3.05021 0
M  V30 2562 N 246.843 -1.10192 1.12674 0
M  V30 2563 C 248.089 -1.82658 0.894847 0
M  V30 2564 C 248.444 -1.83666 -0.573107 0
M  V30 2565 O 247.737 -1.28816 -1.41835 0
M  V30 2566 C 247.931 -3.28552 1.4067 0
M  V30 2567 C 247.76 -3.41756 2.92289 0
M  V30 2568 C 246.53 -3.54021 3.60551 0
M  V30 2569 C 248.728 -3.34949 3.90274 0
M  V30 2570 N 246.71 -3.55827 5.0026 0
M  V30 2571 C 248.081 -3.43531 5.16127 0
M  V30 2572 C 250.136 -3.18565 3.8265 0
M  V30 2573 C 248.839 -3.37416 6.3525 0
M  V30 2574 C 250.865 -3.13772 5.01299 0
M  V30 2575 C 250.227 -3.22938 6.26012 0
M  V30 2576 H 246.326 -0.683044 0.380756 0
M  V30 2577 H 248.91 -1.31752 1.43351 0
M  V30 2578 H 247.081 -3.77946 0.895055 0
M  V30 2579 H 248.813 -3.88991 1.11661 0
M  V30 2580 H 245.568 -3.57135 3.1105 0
M  V30 2581 H 245.992 -3.60335 5.73138 0
M  V30 2582 H 250.634 -3.10354 2.87124 0
M  V30 2583 H 248.352 -3.44391 7.3104 0
M  V30 2584 H 251.938 -3.02242 4.97133 0
M  V30 2585 H 250.818 -3.19235 7.16281 0
M  V30 2586 N 248.321 -0.919034 -1.28029 0
M  V30 2587 C 249.231 -0.416756 -2.30869 0
M  V30 2588 C 250.247 0.498235 -1.66714 0
M  V30 2589 O 251.423 0.383144 -1.97722 0
M  V30 2590 C 248.488 0.330274 -3.45123 0
M  V30 2591 C 247.549 -0.618578 -4.2482 0
M  V30 2592 C 246.782 0.0928959 -5.33619 0
M  V30 2593 O 247.005 1.31375 -5.55065 0
M  V30 2594 O 245.939 -0.574499 -5.99152 0
M  V30 2595 H 249.765 -1.27043 -2.75851 0
M  V30 2596 H 247.35 -0.684052 -1.3282 0
M  V30 2597 H 249.232 0.751972 -4.14636 0
M  V30 2598 H 247.907 1.1597 -3.02213 0
M  V30 2599 H 246.814 -1.08978 -3.57875 0
M  V30 2600 H 248.147 -1.41497 -4.71423 0
M  V30 2601 N 249.799 1.42003 -0.683588 0
M  V30 2602 C 250.729 2.33487 -0.024866 0
M  V30 2603 C 251.71 1.51163 0.779975 0
M  V30 2604 O 252.895 1.79739 0.735362 0
M  V30 2605 C 250.025 3.3487 0.920836 0
M  V30 2606 C 248.979 4.27414 0.223958 0
M  V30 2607 C 248.305 5.19074 1.2832 0
M  V30 2608 C 249.605 5.14445 -0.90242 0
M  V30 2609 H 251.299 2.88819 -0.788921 0
M  V30 2610 H 248.845 1.38873 -0.38083 0
M  V30 2611 H 250.798 3.97787 1.39081 0
M  V30 2612 H 249.522 2.77861 1.71642 0
M  V30 2613 H 248.181 3.65904 -0.225864 0
M  V30 2614 H 247.829 4.58387 2.071 0
M  V30 2615 H 247.529 5.81822 0.821995 0
M  V30 2616 H 249.053 5.84867 1.75392 0
M  V30 2617 H 250.467 5.70998 -0.513272 0
M  V30 2618 H 248.864 5.86072 -1.28997 0
M  V30 2619 H 249.934 4.52322 -1.74737 0
M  V30 2620 N 251.277 0.427512 1.51691 0
M  V30 2621 C 252.502 -0.143601 2.06902 0
M  V30 2622 C 252.927 -1.36536 1.29382 0
M  V30 2623 O 252.285 -1.78289 0.329043 0
M  V30 2624 C 252.333 -0.454207 3.57728 0
M  V30 2625 O 251.437 -1.54228 3.82475 0
M  V30 2626 H 250.778 -0.00617128 0.663971 0
M  V30 2627 H 253.308 0.606014 1.95419 0
M  V30 2628 H 253.318 -0.707525 4.01818 0
M  V30 2629 H 251.993 0.438812 4.13579 0
M  V30 2630 H 250.57 -1.2797 3.50254 0
M  V30 2631 N 252.755 -1.56801 0.158532 0
M  V30 2632 C 253.983 -2.00859 -0.496303 0
M  V30 2633 C 254.398 -1.03871 -1.57659 0
M  V30 2634 O 253.755 -0.0375165 -1.82461 0
M  V30 2635 C 253.806 -3.4479 -1.08638 0
M  V30 2636 O 253.527 -4.38072 -0.0492322 0
M  V30 2637 C 255.028 -4.04185 -1.8207 0
M  V30 2638 H 252.248 -0.65864 -0.128199 0
M  V30 2639 H 254.792 -2.02885 0.256506 0
M  V30 2640 H 252.947 -3.43579 -1.78975 0
M  V30 2641 H 253.361 -5.2227 -0.483102 0
M  V30 2642 H 254.835 -5.06857 -2.18633 0
M  V30 2643 H 255.312 -3.45549 -2.71095 0
M  V30 2644 H 255.918 -4.0906 -1.16405 0
M  V30 2645 N 254.233 0.115231 -1.57178 0
M  V30 2646 C 255.143 1.15994 -2.03918 0
M  V30 2647 C 256.159 1.45103 -0.960268 0
M  V30 2648 O 257.335 1.56144 -1.27204 0
M  V30 2649 C 254.4 2.46568 -2.43732 0
M  V30 2650 C 253.461 2.24822 -3.65723 0
M  V30 2651 C 252.694 3.4917 -4.03629 0
M  V30 2652 O 252.917 4.56623 -3.41835 0
M  V30 2653 O 251.851 3.39949 -4.96708 0
M  V30 2654 H 255.677 0.793019 -2.93164 0
M  V30 2655 H 253.262 0.3263 -1.45793 0
M  V30 2656 H 255.144 3.23492 -2.70057 0
M  V30 2657 H 253.819 2.82726 -1.57631 0
M  V30 2658 H 252.726 1.45744 -3.44542 0
M  V30 2659 H 254.059 1.93566 -4.52541 0
M  V30 2660 N 255.711 1.52812 0.385517 0
M  V30 2661 C 256.621 1.80766 1.49535 0
M  V30 2662 C 257.637 0.694651 1.59532 0
M  V30 2663 O 258.813 0.982611 1.75803 0
M  V30 2664 C 255.878 1.97381 2.85029 0
M  V30 2665 C 254.939 3.21295 2.84724 0
M  V30 2666 C 254.172 3.37108 4.13756 0
M  V30 2667 O 254.395 2.5765 5.08893 0
M  V30 2668 O 253.329 4.30378 4.20783 0
M  V30 2669 H 257.155 2.75015 1.28842 0
M  V30 2670 H 254.74 1.37946 0.573697 0
M  V30 2671 H 256.622 2.09996 3.65349 0
M  V30 2672 H 255.297 1.06322 3.05741 0
M  V30 2673 H 254.204 3.1412 2.03174 0
M  V30 2674 H 255.537 4.12212 2.68965 0
M  V30 2675 N 257.189 -0.644168 1.43834 0
M  V30 2676 C 258.099 -1.78563 1.52159 0
M  V30 2677 C 259.115 -1.69147 0.408069 0
M  V30 2678 O 260.291 -1.90156 0.663524 0
M  V30 2679 C 257.356 -3.14888 1.45073 0
M  V30 2680 C 256.417 -3.36034 2.6717 0
M  V30 2681 C 255.65 -4.65855 2.60413 0
M  V30 2682 O 255.873 -5.45805 1.65689 0
M  V30 2683 O 254.807 -4.88918 3.5106 0
M  V30 2684 H 258.633 -1.74494 2.48567 0
M  V30 2685 H 256.218 -0.80378 1.25935 0
M  V30 2686 H 258.1 -3.96179 1.43597 0
M  V30 2687 H 256.775 -3.19528 0.518037 0
M  V30 2688 H 255.682 -2.54472 2.74217 0
M  V30 2689 H 257.015 -3.36247 3.59442 0
M  V30 2690 N 258.668 -1.30515 -0.883378 0
M  V30 2691 C 259.917 -1.18795 -1.63005 0
M  V30 2692 C 260.23 0.255923 -1.93919 0
M  V30 2693 O 261.436 0.494654 -2.66956 0
M  V30 2694 C 259.892 -2.07878 -2.93794 0
M  V30 2695 C 259.5 -3.57184 -2.70414 0
M  V30 2696 C 261.244 -2.04924 -3.71761 0
M  V30 2697 C 259.151 -4.38317 -3.97029 0
M  V30 2698 H 258.081 -0.441031 -0.611562 0
M  V30 2699 H 260.732 -1.55275 -0.977854 0
M  V30 2700 H 259.114 -1.64283 -3.60315 0
M  V30 2701 H 260.288 -4.08937 -2.12384 0
M  V30 2702 H 258.603 -3.61976 -2.0582 0
M  V30 2703 H 261.2 -2.62792 -4.65665 0
M  V30 2704 H 261.543 -1.0331 -4.03277 0
M  V30 2705 H 262.076 -2.46649 -3.12104 0
M  V30 2706 H 258.815 -5.40632 -3.70671 0
M  V30 2707 H 258.335 -3.91326 -4.54559 0
M  V30 2708 H 260.014 -4.49834 -4.65036 0
M  V30 2709 N 260.146 1.09593 -1.13257 0
M  V30 2710 C 261.096 2.14345 -0.777179 0
M  V30 2711 C 262.08 1.59277 0.227966 0
M  V30 2712 O 263.272 1.76971 0.0321413 0
M  V30 2713 C 260.401 3.42439 -0.242991 0
M  V30 2714 C 259.487 4.04419 -1.27694 0
M  V30 2715 N 259.878 4.40979 -2.47732 0
M  V30 2716 C 258.176 4.31596 -1.12432 0
M  V30 2717 C 258.877 4.89784 -3.13826 0
M  V30 2718 N 257.853 4.87133 -2.41252 0
M  V30 2719 H 261.655 2.40415 -1.69049 0
M  V30 2720 H 259.169 1.26803 -1.01463 0
M  V30 2721 H 261.166 4.16889 0.0298496 0
M  V30 2722 H 259.826 3.17824 0.66467 0
M  V30 2723 H 260.837 4.32396 -2.85051 0
M  V30 2724 H 257.514 4.16595 -0.274684 0
M  V30 2725 H 258.904 5.2755 -4.16102 0
M  V30 2726 N 261.624 0.925811 1.2754 0
M  V30 2727 C 262.574 0.394488 2.24561 0
M  V30 2728 C 263.558 -0.500183 1.52928 0
M  V30 2729 O 264.75 -0.337936 1.73744 0
M  V30 2730 C 261.879 -0.353328 3.41477 0
M  V30 2731 C 260.965 0.557752 4.20416 0
M  V30 2732 N 261.356 1.67674 4.77199 0
M  V30 2733 C 259.654 0.360404 4.44541 0
M  V30 2734 C 260.355 2.24324 5.36706 0
M  V30 2735 N 259.331 1.53305 5.21535 0
M  V30 2736 H 263.133 1.2489 2.66045 0
M  V30 2737 H 260.647 0.779864 1.4245 0
M  V30 2738 H 262.644 -0.7509 4.10082 0
M  V30 2739 H 261.304 -1.20469 3.01525 0
M  V30 2740 H 262.315 2.05915 4.75204 0
M  V30 2741 H 258.992 -0.450454 4.15063 0
M  V30 2742 H 260.382 3.18521 5.91603 0
M  V30 2743 N 263.102 -1.41638 0.69111 0
M  V30 2744 C 264.349 -2.01299 0.220193 0
M  V30 2745 C 264.677 -1.54715 -1.17871 0
M  V30 2746 O 263.932 -0.747193 -1.80874 0
M  V30 2747 C 264.231 -3.56714 0.221277 0
M  V30 2748 C 263.897 -4.22792 1.56709 0
M  V30 2749 C 262.559 -4.40557 1.93554 0
M  V30 2750 C 264.911 -4.59883 2.45268 0
M  V30 2751 C 262.239 -4.92688 3.18552 0
M  V30 2752 C 264.591 -5.13403 3.69595 0
M  V30 2753 C 263.255 -5.29379 4.06589 0
M  V30 2754 H 262.525 -0.736606 0.0805743 0
M  V30 2755 H 265.172 -1.69598 0.889319 0
M  V30 2756 H 263.477 -3.8818 -0.531391 0
M  V30 2757 H 265.174 -4.00678 -0.160547 0
M  V30 2758 H 261.764 -4.09336 1.2705 0
M  V30 2759 H 265.948 -4.45817 2.18084 0
M  V30 2760 H 261.204 -5.03242 3.47214 0
M  V30 2761 H 265.378 -5.41084 4.38407 0
M  V30 2762 H 263.005 -5.69537 5.03519 0
M  V30 2763 N 264.58 -0.43555 -1.51462 0
M  V30 2764 C 265.527 0.376797 -2.27703 0
M  V30 2765 C 266.497 1.01838 -1.31219 0
M  V30 2766 O 267.682 1.03762 -1.60119 0
M  V30 2767 C 264.822 1.47301 -3.12084 0
M  V30 2768 C 263.935 0.849744 -4.2356 0
M  V30 2769 C 263.07 1.92086 -4.95254 0
M  V30 2770 C 262.109 1.27593 -5.98654 0
M  V30 2771 N 261.246 2.28833 -6.63762 0
M  V30 2772 H 266.086 -0.279734 -2.96684 0
M  V30 2773 H 263.623 -0.149795 -1.46335 0
M  V30 2774 H 265.581 2.11984 -3.59331 0
M  V30 2775 H 264.211 2.0992 -2.45221 0
M  V30 2776 H 263.263 0.0912529 -3.80291 0
M  V30 2777 H 264.575 0.338878 -4.97648 0
M  V30 2778 H 263.729 2.64435 -5.46039 0
M  V30 2779 H 262.468 2.46545 -4.20793 0
M  V30 2780 H 261.473 0.537893 -5.47162 0
M  V30 2781 H 262.698 0.738693 -6.7507 0
M  V30 2782 H 260.644 2.82375 -5.92115 0
M  V30 2783 H 260.561 1.82632 -7.33608 0
M  V30 2784 H 261.829 3.00671 -7.19178 0
M  V30 2785 N 266.058 1.56714 -0.166846 0
M  V30 2786 C 267.006 2.19056 0.782123 0
M  V30 2787 C 268 1.15328 1.24079 0
M  V30 2788 O 269.206 1.33537 1.20697 0
M  V30 2789 H 265.581 0.70167 0.270486 0
M  V30 2790 H 267.552 2.97494 0.232322 0
M  V30 2791 C 266.301 2.84206 2.00306 0
M  V30 2792 H 265.624 3.63748 1.65914 0
M  V30 2793 H 267.064 3.31302 2.64604 0
M  V30 2794 C 265.523 1.83744 2.82382 0
M  V30 2795 O 266.053 1.32014 3.79388 0
M  V30 2796 N 264.259 1.52601 2.47308 0
M  V30 2797 H 263.806 1.9486 1.68485 0
M  V30 2798 H 263.764 0.856351 3.02513 0
M  V30 2799 N 267.536 -0.106894 1.57237 0
M  V30 2800 C 268.446 -1.14911 2.0453 0
M  V30 2801 C 269.462 -1.44592 0.96795 0
M  V30 2802 O 270.638 -1.55468 1.2803 0
M  V30 2803 C 267.703 -2.45272 2.45036 0
M  V30 2804 C 266.764 -2.22879 3.66911 0
M  V30 2805 C 265.997 -3.47024 4.05475 0
M  V30 2806 O 266.22 -4.54804 3.44252 0
M  V30 2807 O 265.154 -3.3731 4.98504 0
M  V30 2808 H 268.98 -0.777461 2.9358 0
M  V30 2809 H 266.565 -0.318563 1.45964 0
M  V30 2810 H 268.447 -3.22055 2.71769 0
M  V30 2811 H 267.122 -2.81886 1.59129 0
M  V30 2812 H 266.029 -1.43915 3.45311 0
M  V30 2813 H 267.362 -1.91163 4.53561 0
M  V30 2814 N 269.014 -1.53014 -0.377408 0
M  V30 2815 C 270.239 -1.72818 -1.14668 0
M  V30 2816 C 270.664 -0.450725 -1.8262 0
M  V30 2817 O 270.022 0.59439 -1.7128 0
M  V30 2818 C 270.07 -2.88627 -2.16164 0
M  V30 2819 O 269.174 -2.56409 -3.22998 0
M  V30 2820 H 268.515 -0.574301 -0.333278 0
M  V30 2821 H 271.045 -1.99853 -0.438152 0
M  V30 2822 H 271.055 -3.14455 -2.59966 0
M  V30 2823 H 269.73 -3.81294 -1.66095 0
M  V30 2824 H 268.307 -2.4136 -2.84253 0
M  V30 2825 N 270.492 0.636531 -1.44174 0
M  V30 2826 C 271.422 1.76003 -1.53444 0
M  V30 2827 C 272.403 1.65619 -0.387841 0
M  V30 2828 O 273.588 1.84461 -0.607257 0
M  V30 2829 C 270.718 3.14511 -1.4731 0
M  V30 2830 C 269.672 3.39677 -2.60391 0
M  V30 2831 C 268.998 4.78159 -2.39308 0
M  V30 2832 C 270.298 3.32772 -4.02567 0
M  V30 2833 H 271.992 1.68501 -2.47483 0
M  V30 2834 H 269.538 0.809237 -1.19111 0
M  V30 2835 H 271.491 3.92878 -1.52397 0
M  V30 2836 H 270.215 3.22783 -0.49785 0
M  V30 2837 H 268.874 2.63688 -2.54684 0
M  V30 2838 H 268.522 4.83128 -1.39988 0
M  V30 2839 H 268.222 4.95956 -3.15122 0
M  V30 2840 H 269.746 5.58762 -2.46205 0
M  V30 2841 H 271.16 4.01051 -4.09672 0
M  V30 2842 H 269.557 3.62104 -4.7854 0
M  V30 2843 H 270.627 2.30669 -4.2652 0
M  V30 2844 N 271.97 1.30982 0.876444 0
M  V30 2845 C 273.218 1.20058 1.62575 0
M  V30 2846 C 273.539 -0.242947 1.93481 0
M  V30 2847 O 272.809 -1.1619 1.57724 0
M  V30 2848 H 271.389 0.44135 0.602677 0
M  V30 2849 H 274.051 1.64222 1.04962 0
M  V30 2850 H 273.147 1.76762 2.57219 0
M  V30 2851 N 273.449 -1.08991 1.13837 0
M  V30 2852 C 274.382 -2.15049 0.763477 0
M  V30 2853 C 275.36 -1.60629 -0.252398 0
M  V30 2854 O 276.544 -1.87958 -0.142853 0
M  V30 2855 C 273.671 -3.38441 0.132545 0
M  V30 2856 C 272.717 -4.11596 1.11763 0
M  V30 2857 S 273.55 -4.6521 2.65216 0
M  V30 2858 C 274.706 -5.91896 2.03495 0
M  V30 2859 H 274.939 -2.46518 1.66182 0
M  V30 2860 H 272.472 -1.21008 0.958976 0
M  V30 2861 H 274.43 -4.09883 -0.225074 0
M  V30 2862 H 273.091 -3.05182 -0.743135 0
M  V30 2863 H 272.284 -5.00121 0.624076 0
M  V30 2864 H 271.886 -3.46038 1.41894 0
M  V30 2865 H 274.178 -6.63156 1.38675 0
M  V30 2866 H 275.121 -6.45938 2.9012 0
M  V30 2867 H 275.529 -5.44625 1.48471 0
M  V30 2868 N 274.927 -0.932562 -1.27047 0
M  V30 2869 C 275.89 -0.440064 -2.24936 0
M  V30 2870 C 276.89 0.444071 -1.54547 0
M  V30 2871 O 278.08 0.244465 -1.72476 0
M  V30 2872 C 275.212 0.36678 -3.38921 0
M  V30 2873 H 276.405 -1.305 -2.70018 0
M  V30 2874 H 273.958 -0.713707 -1.39054 0
M  V30 2875 H 274.693 1.25033 -2.99228 0
M  V30 2876 H 274.478 -0.267204 -3.91188 0
M  V30 2877 H 275.968 0.701567 -4.11665 0
M  V30 2878 N 276.405 1.4127 -0.698611 0
M  V30 2879 C 277.652 2.0118 -0.230865 0
M  V30 2880 C 277.98 1.55338 1.17049 0
M  V30 2881 O 277.235 0.756775 1.80475 0
M  V30 2882 C 277.534 3.56592 -0.240192 0
M  V30 2883 C 277.2 4.21955 -1.58948 0
M  V30 2884 C 275.862 4.39524 -1.95887 0
M  V30 2885 C 278.214 4.58576 -2.47704 0
M  V30 2886 C 275.542 4.90992 -3.2116 0
M  V30 2887 C 277.894 5.11435 -3.72313 0
M  V30 2888 C 276.558 5.27215 -4.0939 0
M  V30 2889 H 275.828 0.736169 -0.0844796 0
M  V30 2890 H 278.475 1.69124 -0.8983 0
M  V30 2891 H 276.78 3.88456 0.510797 0
M  V30 2892 H 278.477 4.00758 0.139296 0
M  V30 2893 H 275.067 4.08657 -1.29219 0
M  V30 2894 H 279.251 4.44654 -2.20445 0
M  V30 2895 H 274.507 5.01393 -3.49878 0
M  V30 2896 H 278.681 5.38752 -4.4127 0
M  V30 2897 H 276.308 5.66859 -5.06533 0
M  V30 2898 N 277.883 0.443576 1.51229 0
M  V30 2899 C 278.813 -0.355142 2.30783 0
M  V30 2900 C 279.794 -1.0154 1.36468 0
M  V30 2901 O 280.979 -1.01785 1.65389 0
M  V30 2902 C 278.109 -1.45312 3.15439 0
M  V30 2903 C 277.063 -0.916002 4.18083 0
M  V30 2904 C 276.389 -2.1102 4.91299 0
M  V30 2905 C 277.689 0.0538602 5.22272 0
M  V30 2906 H 279.383 0.308767 2.97804 0
M  V30 2907 H 276.929 0.149937 1.43217 0
M  V30 2908 H 278.882 -2.01914 3.69876 0
M  V30 2909 H 277.606 -2.14541 2.46252 0
M  V30 2910 H 276.265 -0.372145 3.64706 0
M  V30 2911 H 275.913 -2.78882 4.18609 0
M  V30 2912 H 275.613 -1.75717 5.60712 0
M  V30 2913 H 277.137 -2.68164 5.48562 0
M  V30 2914 H 278.551 -0.422069 5.71744 0
M  V30 2915 H 276.948 0.319776 5.99247 0
M  V30 2916 H 278.018 0.98858 4.74716 0
M  V30 2917 N 279.361 -1.56624 0.175154 0
M  V30 2918 C 280.311 -2.14747 -0.766004 0
M  V30 2919 C 281.295 -1.08275 -1.19018 0
M  V30 2920 O 282.487 -1.34388 -1.15191 0
M  V30 2921 C 279.616 -2.79478 -1.99366 0
M  V30 2922 C 278.702 -3.93114 -1.5913 0
M  V30 2923 N 279.093 -4.97752 -0.89872 0
M  V30 2924 C 277.391 -4.04345 -1.88204 0
M  V30 2925 C 278.092 -5.77473 -0.700012 0
M  V30 2926 N 277.068 -5.29207 -1.24263 0
M  V30 2927 H 280.87 -2.93015 -0.22793 0
M  V30 2928 H 278.384 -1.6238 -0.0253843 0
M  V30 2929 H 280.381 -3.19498 -2.67818 0
M  V30 2930 H 279.041 -2.02692 -2.53665 0
M  V30 2931 H 280.052 -5.14903 -0.556347 0
M  V30 2932 H 276.729 -3.38667 -2.44153 0
M  V30 2933 H 278.119 -6.71728 -0.152047 0
M  V30 2934 N 280.839 0.0985539 -1.57292 0
M  V30 2935 C 281.769 1.12064 -2.04851 0
M  V30 2936 C 282.75 1.41981 -0.936767 0
M  V30 2937 O 283.935 1.52071 -1.20781 0
M  V30 2938 C 281.065 2.44144 -2.47004 0
M  V30 2939 C 280.019 2.28643 -3.6181 0
M  V30 2940 C 279.345 3.65869 -3.89929 0
M  V30 2941 C 280.645 1.72986 -4.92822 0
M  V30 2942 H 282.339 0.724979 -2.9049 0
M  V30 2943 H 279.885 0.34729 -1.39749 0
M  V30 2944 H 281.838 3.15914 -2.78884 0
M  V30 2945 H 280.562 2.85639 -1.5836 0
M  V30 2946 H 279.221 1.59318 -3.30172 0
M  V30 2947 H 278.869 4.04885 -2.98458 0
M  V30 2948 H 278.569 3.56344 -4.67218 0
M  V30 2949 H 280.093 4.39112 -4.2428 0
M  V30 2950 H 281.507 2.34593 -5.23105 0
M  V30 2951 H 279.904 1.74229 -5.74251 0
M  V30 2952 H 280.974 0.689007 -4.7998 0
M  V30 2953 N 282.317 1.53212 0.369288 0
M  V30 2954 C 283.557 1.70915 1.12105 0
M  V30 2955 C 283.921 0.449444 1.86665 0
M  V30 2956 O 285.122 0.503105 2.6405 0
M  V30 2957 C 283.393 2.9222 2.05772 0
M  V30 2958 S 284.952 3.30609 2.88519 0
M  V30 2959 H 281.77 0.601445 0.379189 0
M  V30 2960 H 284.372 1.91306 0.402794 0
M  V30 2961 H 283.076 3.82103 1.49752 0
M  V30 2962 H 282.607 2.7422 2.82076 0
M  V30 2963 H 284.622 2.82333 4.08047 0
M  V30 2964 N 283.795 -0.628877 1.44509 0
M  V30 2965 C 284.745 -1.7345 1.47983 0
M  V30 2966 C 285.729 -1.5715 0.345373 0
M  V30 2967 O 286.921 -1.66848 0.590829 0
M  V30 2968 C 284.05 -3.12143 1.42904 0
M  V30 2969 C 283.136 -3.33906 2.61472 0
M  V30 2970 N 283.527 -3.26024 3.86706 0
M  V30 2971 C 281.825 -3.64709 2.56716 0
M  V30 2972 C 282.526 -3.48536 4.65722 0
M  V30 2973 N 281.502 -3.71517 3.96832 0
M  V30 2974 H 285.304 -1.65818 2.42655 0
M  V30 2975 H 282.818 -0.831419 1.39503 0
M  V30 2976 H 284.815 -3.91433 1.43476 0
M  V30 2977 H 283.475 -3.2094 0.492717 0
M  V30 2978 H 284.486 -3.04893 4.18641 0
M  V30 2979 H 281.163 -3.80473 1.71891 0
M  V30 2980 H 282.553 -3.48016 5.74747 0
M  V30 2981 N 285.273 -1.31445 -0.869486 0
M  V30 2982 C 286.203 -1.21727 -1.99261 0
M  V30 2983 C 287.184 -0.104359 -1.6978 0
M  V30 2984 O 288.369 -0.289038 -1.92037 0
M  V30 2985 C 285.499 -0.924317 -3.34774 0
M  V30 2986 C 284.453 -1.99685 -3.78563 0
M  V30 2987 C 283.779 -1.55658 -5.11541 0
M  V30 2988 C 285.079 -3.41003 -3.95619 0
M  V30 2989 H 286.773 -2.1569 -2.07649 0
M  V30 2990 H 284.319 -1.03839 -0.997675 0
M  V30 2991 H 286.272 -0.842934 -4.12883 0
M  V30 2992 H 284.996 0.0509793 -3.2656 0
M  V30 2993 H 283.655 -2.06813 -3.02694 0
M  V30 2994 H 283.303 -0.569132 -4.9977 0
M  V30 2995 H 283.003 -2.27409 -5.41811 0
M  V30 2996 H 284.527 -1.48928 -5.92159 0
M  V30 2997 H 285.941 -3.36547 -4.64122 0
M  V30 2998 H 284.338 -4.10975 -4.37286 0
M  V30 2999 H 285.408 -3.81754 -2.98985 0
M  V30 3000 N 286.751 1.08385 -1.14413 0
M  V30 3001 C 287.714 2.13486 -0.834048 0
M  V30 3002 C 288.714 1.59988 0.161418 0
M  V30 3003 O 289.904 1.74071 -0.0669575 0
M  V30 3004 C 287.036 3.4003 -0.243354 0
M  V30 3005 H 288.229 2.42425 -1.7655 0
M  V30 3006 H 285.782 1.24101 -0.950189 0
M  V30 3007 H 286.517 3.16726 0.696807 0
M  V30 3008 H 286.302 3.80157 -0.960367 0
M  V30 3009 H 287.792 4.17577 -0.0436242 0
M  V30 3010 N 288.23 0.939286 1.26551 0
M  V30 3011 C 289.16 0.465044 2.28822 0
M  V30 3012 C 290.141 -0.480692 1.63167 0
M  V30 3013 O 291.326 -0.382955 1.90387 0
M  V30 3014 C 288.456 -0.27234 3.46231 0
M  V30 3015 C 287.41 0.58666 4.2396 0
M  V30 3016 C 286.736 -0.280573 5.33963 0
M  V30 3017 C 288.036 1.85704 4.88171 0
M  V30 3018 H 289.73 1.31979 2.68741 0
M  V30 3019 H 287.276 0.636061 1.29191 0
M  V30 3020 H 289.229 -0.615133 4.16886 0
M  V30 3021 H 287.953 -1.16121 3.0526 0
M  V30 3022 H 286.612 0.91232 3.55067 0
M  V30 3023 H 286.26 -1.16874 4.89234 0
M  V30 3024 H 285.96 0.29076 5.8688 0
M  V30 3025 H 287.484 -0.618678 6.07458 0
M  V30 3026 H 288.898 1.58161 5.51052 0
M  V30 3027 H 287.295 2.37279 5.51197 0
M  V30 3028 H 288.365 2.56957 4.11219 0
M  V30 3029 N 289.708 -1.40897 0.706093 0
M  V30 3030 C 291.124 -1.55042 0.37869 0
M  V30 3031 C 291.324 -1.67944 -1.11342 0
M  V30 3032 O 290.38 -1.66372 -1.89938 0
M  V30 3033 C 291.693 -2.78398 1.13643 0
M  V30 3034 C 293.241 -2.92206 1.12181 0
M  V30 3035 C 293.716 -4.18463 1.86152 0
M  V30 3036 N 295.207 -4.25443 1.83173 0
M  V30 3037 C 295.942 -5.2202 2.37239 0
M  V30 3038 N 295.438 -6.24563 2.99821 0
M  V30 3039 N 297.231 -5.14033 2.27435 0
M  V30 3040 H 289.382 -1.30769 1.67372 0
M  V30 3041 H 291.645 -0.631653 0.706907 0
M  V30 3042 H 291.351 -2.7511 2.19106 0
M  V30 3043 H 291.225 -3.70228 0.721853 0
M  V30 3044 H 293.612 -2.95004 0.0754171 0
M  V30 3045 H 293.693 -2.01521 1.57554 0
M  V30 3046 H 293.337 -4.16427 2.90776 0
M  V30 3047 H 293.267 -5.08141 1.38206 0
M  V30 3048 H 295.758 -3.51976 1.37556 0
M  V30 3049 H 296.071 -6.94665 3.38616 0
M  V30 3050 H 294.416 -6.25035 3.03902 0
M  V30 3051 H 297.607 -4.3285 1.78208 0
M  V30 3052 H 297.78 -5.89129 2.69873 0
M  V30 3053 N 291.186 -0.45159 -1.50991 0
M  V30 3054 C 292.136 0.370861 -2.24964 0
M  V30 3055 C 293.12 0.978074 -1.2776 0
M  V30 3056 O 294.312 0.893854 -1.52772 0
M  V30 3057 C 291.441 1.46344 -3.10545 0
M  V30 3058 C 290.527 0.864924 -4.15187 0
M  V30 3059 N 290.918 -0.00311354 -5.058 0
M  V30 3060 C 289.216 1.13099 -4.31422 0
M  V30 3061 C 289.917 -0.340772 -5.80701 0
M  V30 3062 N 288.893 0.279203 -5.42883 0
M  V30 3063 H 292.695 -0.298134 -2.92384 0
M  V30 3064 H 290.209 -0.264528 -1.60231 0
M  V30 3065 H 292.206 2.06565 -3.62128 0
M  V30 3066 H 290.866 2.13463 -2.4467 0
M  V30 3067 H 291.877 -0.37058 -5.16572 0
M  V30 3068 H 288.554 1.79861 -3.76771 0
M  V30 3069 H 289.944 -1.048 -6.63677 0
M  V30 3070 N 292.664 1.56529 -0.183458 0
M  V30 3071 C 293.912 1.96855 0.457452 0
M  V30 3072 C 294.233 1.07104 1.62953 0
M  V30 3073 O 293.503 0.139887 1.954 0
M  V30 3074 H 292.083 0.72693 0.171992 0
M  V30 3075 H 294.745 1.93056 -0.267476 0
M  V30 3076 H 293.841 3.01423 0.809368 0
M  V30 3077 N 294.142 -0.090211 1.57342 0
M  V30 3078 C 295.391 -0.791531 1.8552 0
M  V30 3079 C 295.704 -1.79659 0.773441 0
M  V30 3080 O 296.91 -2.54616 0.942497 0
M  V30 3081 C 295.366 -1.45856 3.2902 0
M  V30 3082 C 294.974 -0.493017 4.45279 0
M  V30 3083 C 296.718 -2.14332 3.66418 0
M  V30 3084 C 294.625 -1.16491 5.79814 0
M  V30 3085 H 293.555 -0.299356 0.692027 0
M  V30 3086 H 296.206 -0.0445343 1.83446 0
M  V30 3087 H 294.588 -2.25318 3.2565 0
M  V30 3088 H 295.762 0.270464 4.60006 0
M  V30 3089 H 294.077 0.0863061 4.16311 0
M  V30 3090 H 296.674 -2.65344 4.64216 0
M  V30 3091 H 297.017 -2.93447 2.95287 0
M  V30 3092 H 297.55 -1.41724 3.71698 0
M  V30 3093 H 294.289 -0.41447 6.54188 0
M  V30 3094 H 293.809 -1.8997 5.68921 0
M  V30 3095 H 295.488 -1.69001 6.24538 0
M  V30 3096 N 295.62 -1.53406 -0.361157 0
M  V30 3097 C 297.031 -1.61442 -0.937728 0
M  V30 3098 C 297.382 -0.48461 -1.90121 0
M  V30 3099 O 296.507 0.388312 -2.12888 0
M  V30 3100 C 297.102 -2.92624 -1.70753 0
M  V30 3101 C 295.661 -3.02981 -2.23337 0
M  V30 3102 C 294.808 -2.5677 -1.04712 0
M  V30 3103 H 297.759 -1.58083 -0.139816 0
M  V30 3104 H 297.78 -2.80675 -2.56908 0
M  V30 3105 H 297.292 -3.74834 -1.00604 0
M  V30 3106 H 295.393 -2.25368 -2.96715 0
M  V30 3107 H 295.506 -4.0814 -2.50916 0
M  V30 3108 H 293.87 -2.11752 -1.41539 0
M  V30 3109 H 294.653 -3.41402 -0.360539 0
M  V30 3110 N 297.098 0.621204 -1.44841 0
M  V30 3111 C 298.028 1.74366 -1.55303 0
M  V30 3112 C 299.009 1.65199 -0.405385 0
M  V30 3113 O 300.194 1.83807 -0.626787 0
M  V30 3114 C 297.324 3.12931 -1.50637 0
M  V30 3115 C 296.278 3.36896 -2.63979 0
M  V30 3116 C 295.604 4.75594 -2.44366 0
M  V30 3117 C 296.904 3.28483 -4.06074 0
M  V30 3118 H 298.598 1.65867 -2.49256 0
M  V30 3119 H 296.144 0.796558 -1.19962 0
M  V30 3120 H 298.097 3.9124 -1.56555 0
M  V30 3121 H 296.821 3.22237 -0.532057 0
M  V30 3122 H 295.48 2.60972 -2.57467 0
M  V30 3123 H 295.128 4.81616 -1.45105 0
M  V30 3124 H 294.828 4.92586 -3.20364 0
M  V30 3125 H 296.352 5.5612 -2.52117 0
M  V30 3126 H 297.766 3.96684 -4.13902 0
M  V30 3127 H 296.163 3.57008 -4.82354 0
M  V30 3128 H 297.233 2.26133 -4.28943 0
M  V30 3129 N 298.576 1.31904 0.862503 0
M  V30 3130 C 299.486 1.22161 2.00285 0
M  V30 3131 C 300.502 0.136785 1.73462 0
M  V30 3132 O 301.678 0.355994 1.98229 0
M  V30 3133 C 298.743 0.937093 3.33796 0
M  V30 3134 C 297.804 2.10957 3.73893 0
M  V30 3135 C 297.037 1.83853 5.01033 0
M  V30 3136 O 297.26 0.777274 5.65079 0
M  V30 3137 O 296.194 2.69741 5.38074 0
M  V30 3138 H 300.02 2.18008 2.11439 0
M  V30 3139 H 297.605 1.11716 0.991957 0
M  V30 3140 H 299.487 0.794583 4.13841 0
M  V30 3141 H 298.162 0.00871894 3.23699 0
M  V30 3142 H 297.069 2.30752 2.94456 0
M  V30 3143 H 298.402 3.02046 3.88625 0
M  V30 3144 N 300.054 -1.07777 1.14986 0
M  V30 3145 C 300.964 -2.18404 0.856546 0
M  V30 3146 C 301.98 -1.73211 -0.165485 0
M  V30 3147 O 303.156 -2.01399 0.00755219 0
M  V30 3148 C 300.221 -3.44977 0.34526 0
M  V30 3149 C 299.282 -4.0476 1.43065 0
M  V30 3150 C 298.515 -5.25291 0.943663 0
M  V30 3151 O 298.738 -5.70004 -0.212426 0
M  V30 3152 O 297.672 -5.76638 1.72547 0
M  V30 3153 H 301.498 -2.45978 1.78125 0
M  V30 3154 H 299.083 -1.17033 0.928631 0
M  V30 3155 H 300.965 -4.21348 0.0663671 0
M  V30 3156 H 299.64 -3.18965 -0.551631 0
M  V30 3157 H 298.547 -3.29949 1.76309 0
M  V30 3158 H 299.88 -4.35035 2.30229 0
M  V30 3159 N 301.532 -0.945985 -1.26051 0
M  V30 3160 C 302.778 -0.597002 -1.93814 0
M  V30 3161 C 303.111 0.862484 -1.73997 0
M  V30 3162 O 302.386 1.61769 -1.07986 0
M  V30 3163 C 302.669 -0.945937 -3.47454 0
M  V30 3164 C 302.522 -2.46052 -3.76535 0
M  V30 3165 C 303.841 -0.464785 -4.37639 0
M  V30 3166 H 300.96 -0.218366 -0.703907 0
M  V30 3167 H 303.602 -1.18107 -1.48831 0
M  V30 3168 H 301.752 -0.448902 -3.85898 0
M  V30 3169 H 303.424 -3.03065 -3.47778 0
M  V30 3170 H 301.667 -2.90194 -3.22444 0
M  V30 3171 H 302.338 -2.65517 -4.83947 0
M  V30 3172 H 304.814 -0.891016 -4.06448 0
M  V30 3173 H 303.69 -0.737712 -5.4392 0
M  V30 3174 H 303.951 0.635274 -4.37512 0
M  V30 3175 N 303.011 1.40521 -0.713556 0
M  V30 3176 C 303.974 2.29098 -0.0684347 0
M  V30 3177 C 304.974 1.45268 0.689472 0
M  V30 3178 O 306.164 1.66205 0.521677 0
M  V30 3179 C 303.296 3.28446 0.913024 0
M  V30 3180 H 304.489 2.87645 -0.84855 0
M  V30 3181 H 302.042 1.48809 -0.47809 0
M  V30 3182 H 302.777 2.74913 1.72027 0
M  V30 3183 H 302.562 3.90327 0.372472 0
M  V30 3184 H 304.052 3.94777 1.36165 0
M  V30 3185 N 304.489 0.459591 1.5075 0
M  V30 3186 C 305.436 -0.340524 2.28274 0
M  V30 3187 C 306.406 -0.997371 1.32822 0
M  V30 3188 O 307.591 -1.01202 1.61749 0
M  V30 3189 C 304.731 -1.42317 3.14388 0
M  V30 3190 C 303.844 -0.782251 4.24859 0
M  V30 3191 C 302.979 -1.84182 4.98247 0
M  V30 3192 C 302.018 -1.18053 6.00608 0
M  V30 3193 N 301.155 -2.18244 6.67319 0
M  V30 3194 H 305.995 0.326899 2.96202 0
M  V30 3195 H 303.532 0.173057 1.46078 0
M  V30 3196 H 305.49 -2.06241 3.62658 0
M  V30 3197 H 304.12 -2.05992 2.4853 0
M  V30 3198 H 303.172 -0.0307404 3.80388 0
M  V30 3199 H 304.484 -0.259663 4.98124 0
M  V30 3200 H 303.638 -2.55714 5.50177 0
M  V30 3201 H 302.377 -2.39819 4.24662 0
M  V30 3202 H 301.382 -0.450776 5.47949 0
M  V30 3203 H 302.607 -0.631202 6.7616 0
M  V30 3204 H 300.553 -2.72919 5.96533 0
M  V30 3205 H 300.47 -1.70938 7.36421 0
M  V30 3206 H 301.738 -2.89191 7.23871 0
M  V30 3207 N 305.967 -1.56429 0.191757 0
M  V30 3208 C 306.914 -2.18936 -0.730454 0
M  V30 3209 C 307.884 -1.13557 -1.21219 0
M  V30 3210 O 309.069 -1.41794 -1.27668 0
M  V30 3211 C 306.209 -2.85013 -1.9458 0
M  V30 3212 C 305.322 -4.04909 -1.50574 0
M  V30 3213 C 304.457 -4.58853 -2.67634 0
M  V30 3214 C 303.496 -5.71114 -2.20217 0
M  V30 3215 N 302.633 -6.19478 -3.30442 0
M  V30 3216 H 307.473 -2.97389 -0.190664 0
M  V30 3217 H 305.01 -1.46869 -0.0823694 0
M  V30 3218 H 306.968 -3.21492 -2.65893 0
M  V30 3219 H 305.598 -2.09129 -2.45896 0
M  V30 3220 H 304.65 -3.74115 -0.688605 0
M  V30 3221 H 305.962 -4.86113 -1.11784 0
M  V30 3222 H 305.116 -4.97619 -3.47074 0
M  V30 3223 H 303.855 -3.76749 -3.09696 0
M  V30 3224 H 302.86 -5.31879 -1.3923 0
M  V30 3225 H 304.085 -6.55033 -1.79189 0
M  V30 3226 H 302.031 -5.40297 -3.72041 0
M  V30 3227 H 301.948 -6.95725 -2.9581 0
M  V30 3228 H 303.216 -6.62898 -4.10106 0
M  V30 3229 N 307.445 0.0818655 -1.57387 0
M  V30 3230 C 308.673 0.796108 -1.9097 0
M  V30 3231 C 309.088 1.71626 -0.786757 0
M  V30 3232 O 308.445 1.80908 0.240513 0
M  V30 3233 C 308.496 1.59829 -3.24248 0
M  V30 3234 O 308.217 0.715131 -4.32224 0
M  V30 3235 C 309.718 2.41442 -3.7178 0
M  V30 3236 H 306.938 0.22691 -0.631469 0
M  V30 3237 H 309.482 0.0551439 -2.04426 0
M  V30 3238 H 307.637 2.29163 -3.12351 0
M  V30 3239 H 308.051 1.27205 -5.08841 0
M  V30 3240 H 309.525 2.932 -4.67694 0
M  V30 3241 H 310.002 3.2051 -3.00283 0
M  V30 3242 H 310.608 1.77283 -3.86589 0
M  V30 3243 N 308.923 1.53595 0.353017 0
M  V30 3244 C 310.148 1.7462 1.11904 0
M  V30 3245 C 310.573 0.479721 1.8188 0
M  V30 3246 O 309.931 -0.567066 1.72204 0
M  V30 3247 C 309.979 2.92029 2.11545 0
M  V30 3248 O 309.083 2.61516 3.18878 0
M  V30 3249 H 308.424 0.579531 0.324099 0
M  V30 3250 H 310.954 2.00525 0.406301 0
M  V30 3251 H 310.964 3.18551 2.5493 0
M  V30 3252 H 309.639 3.83888 1.60008 0
M  V30 3253 H 308.216 2.45852 2.80377 0
M  V30 3254 N 310.401 -0.613514 1.45168 0
M  V30 3255 C 311.648 -1.37268 1.48875 0
M  V30 3256 C 311.976 -1.94077 0.128161 0
M  V30 3257 O 311.231 -1.75178 -0.872416 0
M  V30 3258 C 311.53 -2.54347 2.51083 0
M  V30 3259 C 311.196 -2.1572 3.95949 0
M  V30 3260 C 309.858 -2.04899 4.35396 0
M  V30 3261 C 312.21 -1.85485 4.87078 0
M  V30 3262 C 309.538 -1.62057 5.63875 0
M  V30 3263 C 311.89 -1.4413 6.15962 0
M  V30 3264 C 310.554 -1.31863 6.54346 0
M  V30 3265 H 309.824 -0.502299 0.544773 0
M  V30 3266 H 312.471 -0.694021 1.78481 0
M  V30 3267 H 310.776 -3.27524 2.15024 0
M  V30 3268 H 312.473 -3.12577 2.51191 0
M  V30 3269 H 309.063 -2.25066 3.64751 0
M  V30 3270 H 313.247 -1.92745 4.57343 0
M  V30 3271 H 308.503 -1.51177 5.92415 0
M  V30 3272 H 312.677 -1.19778 6.86022 0
M  V30 3273 H 310.304 -0.984392 7.538 0
M  V30 3274 N 311.879 -1.3236 -0.855495 0
M  V30 3275 C 312.826 -1.21225 -1.964 0
M  V30 3276 C 313.796 -0.0946204 -1.6583 0
M  V30 3277 O 314.981 -0.27002 -1.8888 0
M  V30 3278 C 312.121 -0.940419 -3.32039 0
M  V30 3279 C 311.234 -2.14276 -3.75113 0
M  V30 3280 C 310.369 -1.80648 -4.9954 0
M  V30 3281 C 309.408 -2.97208 -5.35102 0
M  V30 3282 N 308.545 -2.63678 -6.50706 0
M  V30 3283 H 313.385 -2.16042 -2.05255 0
M  V30 3284 H 310.922 -1.07451 -1.00463 0
M  V30 3285 H 312.88 -0.763311 -4.10158 0
M  V30 3286 H 311.51 -0.0290413 -3.22787 0
M  V30 3287 H 310.562 -2.43017 -2.92655 0
M  V30 3288 H 311.874 -3.01468 -3.97389 0
M  V30 3289 H 311.028 -1.59484 -5.85363 0
M  V30 3290 H 309.767 -0.906678 -4.79198 0
M  V30 3291 H 308.772 -3.19004 -4.47791 0
M  V30 3292 H 309.997 -3.87918 -5.57401 0
M  V30 3293 H 307.943 -1.76238 -6.31883 0
M  V30 3294 H 307.86 -3.444 -6.72997 0
M  V30 3295 H 309.128 -2.45942 -7.39684 0
M  V30 3296 N 313.357 1.07166 -1.15556 0
M  V30 3297 C 314.634 1.76546 -0.842069 0
M  V30 3298 C 315.014 2.00453 0.661939 0
M  V30 3299 O 314.362 1.62452 1.60691 0
M  V30 3300 C 314.572 3.07266 -1.65495 0
M  V30 3301 C 315.92 3.81578 -1.86234 0
M  V30 3302 O 316.944 3.17083 -1.62287 0
M  V30 3303 O 315.803 4.97419 -2.26355 0
M  V30 3304 H 312.897 0.766756 -0.309862 0
M  V30 3305 H 315.443 1.13514 -1.26145 0
M  V30 3306 H 314.215 2.85494 -2.67598 0
M  V30 3307 H 313.838 3.7803 -1.23203 0
M  V30 3308 N 314.835 0.952656 1.25548 0
M  V30 3309 C 316.075 0.614013 1.9496 0
M  V30 3310 C 316.439 -0.833215 1.72978 0
M  V30 3311 O 317.64 -1.28135 2.36294 0
M  V30 3312 C 315.911 0.960562 3.4425 0
M  V30 3313 S 317.47 0.734195 4.32614 0
M  V30 3314 H 314.288 0.225754 0.674208 0
M  V30 3315 H 316.89 1.22641 1.52248 0
M  V30 3316 H 315.594 2.01103 3.57751 0
M  V30 3317 H 315.125 0.338336 3.91942 0
M  V30 3318 H 317.14 -0.395995 4.94617 0
M  V30 3319 N 316.313 -1.40141 0.720998 0
M  V30 3320 C 317.562 -2.0002 0.259804 0
M  V30 3321 C 317.875 -1.57839 -1.15526 0
M  V30 3322 O 319.081 -2.10455 -1.71525 0
M  V30 3323 C 317.537 -3.57516 0.413566 0
M  V30 3324 C 317.145 -4.08667 1.83562 0
M  V30 3325 C 318.889 -4.24498 0.0134387 0
M  V30 3326 C 316.796 -5.58686 1.93968 0
M  V30 3327 H 315.726 -0.748195 0.0933806 0
M  V30 3328 H 318.377 -1.60313 0.892866 0
M  V30 3329 H 316.759 -3.9495 -0.288169 0
M  V30 3330 H 317.933 -3.82598 2.56817 0
M  V30 3331 H 316.248 -3.543 2.1877 0
M  V30 3332 H 318.845 -5.34654 0.0703954 0
M  V30 3333 H 319.188 -4.03375 -1.02927 0
M  V30 3334 H 319.721 -3.92188 0.665815 0
M  V30 3335 H 316.46 -5.8467 2.96379 0
M  V30 3336 H 315.98 -5.86602 1.25131 0
M  V30 3337 H 317.659 -6.23875 1.71431 0
M  V30 3338 N 317.792 -0.46758 -1.50504 0
M  V30 3339 C 319.203 -0.0116166 -1.86696 0
M  V30 3340 C 319.554 1.39202 -1.38265 0
M  V30 3341 O 318.679 2.0313 -0.746132 0
M  V30 3342 C 319.274 -0.0143044 -3.38797 0
M  V30 3343 C 317.833 0.386175 -3.74414 0
M  V30 3344 C 316.98 -0.401287 -2.74381 0
M  V30 3345 H 319.931 -0.682022 -1.43297 0
M  V30 3346 H 319.952 0.788641 -3.72237 0
M  V30 3347 H 319.464 -1.03602 -3.74016 0
M  V30 3348 H 317.565 1.41237 -3.44794 0
M  V30 3349 H 317.678 0.0899596 -4.79016 0
M  V30 3350 H 316.042 0.144536 -2.5429 0
M  V30 3351 H 316.825 -1.42244 -3.12444 0
M  V30 3352 N 319.27 1.56325 -0.20005 0
M  V30 3353 C 320.686 1.58839 0.155716 0
M  V30 3354 C 320.886 1.21636 1.60645 0
M  V30 3355 O 319.942 0.941437 2.34293 0
M  V30 3356 C 321.255 3.0032 -0.151124 0
M  V30 3357 C 322.803 3.12866 -0.0916284 0
M  V30 3358 C 323.278 4.56488 -0.371845 0
M  V30 3359 N 324.769 4.62089 -0.320641 0
M  V30 3360 C 325.504 5.71116 -0.511243 0
M  V30 3361 N 325 6.88592 -0.762461 0
M  V30 3362 N 326.793 5.60335 -0.445157 0
M  V30 3363 H 318.944 1.78788 -1.14668 0
M  V30 3364 H 321.207 0.829996 -0.458051 0
M  V30 3365 H 320.913 3.32117 -1.15721 0
M  V30 3366 H 320.787 3.73257 0.543986 0
M  V30 3367 H 323.174 2.80878 0.905065 0
M  V30 3368 H 323.255 2.42304 -0.81989 0
M  V30 3369 H 322.899 4.89189 -1.36588 0
M  V30 3370 H 322.829 5.25246 0.377362 0
M  V30 3371 H 325.32 3.77665 -0.13329 0
M  V30 3372 H 325.633 7.67581 -0.896576 0
M  V30 3373 H 323.978 6.90387 -0.799412 0
M  V30 3374 H 327.169 4.67436 -0.249278 0
M  V30 3375 H 327.342 6.45243 -0.597116 0
M  V30 3376 N 320.748 -0.0735177 1.57428 0
M  V30 3377 C 321.973 -0.789787 1.91774 0
M  V30 3378 C 322.398 -1.70413 0.796306 0
M  V30 3379 O 321.756 -1.79555 -0.250961 0
M  V30 3380 C 321.804 -1.5609 3.25067 0
M  V30 3381 O 320.908 -2.67144 3.14178 0
M  V30 3382 H 320.249 -0.215582 0.628029 0
M  V30 3383 H 322.779 -0.0422781 2.04556 0
M  V30 3384 H 322.789 -1.94052 3.58898 0
M  V30 3385 H 321.464 -0.890015 4.06265 0
M  V30 3386 H 320.041 -2.32052 2.91901 0
M  V30 3387 N 322.226 -1.5378 -0.344866 0
M  V30 3388 C 323.473 -1.70963 -1.08526 0
M  V30 3389 C 323.801 -0.472126 -1.88683 0
M  V30 3390 O 323.056 0.546116 -1.87926 0
M  V30 3391 C 323.355 -2.92407 -2.05506 0
M  V30 3392 C 323.021 -4.28066 -1.41671 0
M  V30 3393 C 321.683 -4.64951 -1.2399 0
M  V30 3394 C 324.035 -5.12344 -0.956726 0
M  V30 3395 C 321.363 -5.83733 -0.589277 0
M  V30 3396 C 323.715 -6.3179 -0.320015 0
M  V30 3397 C 322.379 -6.67372 -0.130881 0
M  V30 3398 H 321.649 -0.625598 -0.397124 0
M  V30 3399 H 324.296 -1.87995 -0.36469 0
M  V30 3400 H 322.601 -2.69973 -2.8394 0
M  V30 3401 H 324.298 -3.02895 -2.62784 0
M  V30 3402 H 320.888 -3.99034 -1.56429 0
M  V30 3403 H 325.072 -4.8438 -1.08118 0
M  V30 3404 H 320.328 -6.09877 -0.431344 0
M  V30 3405 H 324.502 -6.96386 0.0445072 0
M  V30 3406 H 322.129 -7.59273 0.375318 0
M  V30 3407 N 323.704 0.605807 -1.45491 0
M  V30 3408 C 325.12 0.926751 -1.29936 0
M  V30 3409 C 325.32 1.99896 -0.253706 0
M  V30 3410 O 324.376 2.50038 0.351737 0
M  V30 3411 C 325.689 1.36599 -2.67883 0
M  V30 3412 C 327.237 1.4801 -2.75793 0
M  V30 3413 C 327.712 1.95309 -4.14268 0
M  V30 3414 N 329.203 2.0254 -4.16571 0
M  V30 3415 C 329.938 2.40363 -5.20589 0
M  V30 3416 N 329.434 2.77143 -6.34952 0
M  V30 3417 N 331.227 2.40718 -5.07948 0
M  V30 3418 H 323.378 -0.102862 -2.12151 0
M  V30 3419 H 325.641 0.016639 -0.947854 0
M  V30 3420 H 325.347 0.652306 -3.45598 0
M  V30 3421 H 325.221 2.33215 -2.96463 0
M  V30 3422 H 327.608 2.1847 -1.98381 0
M  V30 3423 H 327.689 0.497041 -2.50925 0
M  V30 3424 H 327.333 1.25436 -4.92167 0
M  V30 3425 H 327.263 2.94532 -4.3653 0
M  V30 3426 H 329.754 1.76699 -3.34045 0
M  V30 3427 H 330.067 3.0489 -7.10114 0
M  V30 3428 H 328.412 2.74834 -6.3835 0
M  V30 3429 H 331.603 2.11392 -4.1765 0
M  V30 3430 H 331.776 2.69869 -5.89131 0
M  V30 3431 N 325.182 1.32811 0.848464 0
M  V30 3432 C 326.598 1.11937 1.13764 0
M  V30 3433 C 326.798 -0.0960789 2.01271 0
M  V30 3434 O 325.854 -0.779165 2.40178 0
M  V30 3435 C 327.167 2.402 1.809 0
M  V30 3436 C 328.715 2.46016 1.93508 0
M  V30 3437 C 329.19 3.74215 2.64059 0
M  V30 3438 N 330.681 3.75232 2.71579 0
M  V30 3439 C 331.416 4.71134 3.26833 0
M  V30 3440 N 330.912 5.77406 3.8285 0
M  V30 3441 N 332.705 4.58623 3.24995 0
M  V30 3442 H 324.856 2.1073 0.265855 0
M  V30 3443 H 327.119 0.930671 0.180431 0
M  V30 3444 H 326.825 3.29093 1.24058 0
M  V30 3445 H 326.699 2.51628 2.81004 0
M  V30 3446 H 329.086 1.57577 2.49506 0
M  V30 3447 H 329.167 2.38536 0.923811 0
M  V30 3448 H 328.811 4.63031 2.08722 0
M  V30 3449 H 328.741 3.78968 3.65637 0
M  V30 3450 H 331.232 2.98423 2.31845 0
M  V30 3451 H 331.545 6.46632 4.23187 0
M  V30 3452 H 329.89 5.81152 3.81165 0
M  V30 3453 H 333.081 3.74762 2.80484 0
M  V30 3454 H 333.254 5.33535 3.67756 0
M  V30 3455 N 326.66 -1.06551 1.16123 0
M  V30 3456 C 327.61 -2.12209 0.833736 0
M  V30 3457 C 328.594 -1.59825 -0.185656 0
M  V30 3458 O 329.786 -1.76994 0.0147906 0
M  V30 3459 C 326.915 -3.41674 0.333697 0
M  V30 3460 C 326.001 -4.00892 1.38372 0
M  V30 3461 N 326.392 -4.34256 2.59337 0
M  V30 3462 C 324.69 -4.28463 1.23836 0
M  V30 3463 C 325.391 -4.81291 3.26701 0
M  V30 3464 N 324.367 -4.80565 2.54083 0
M  V30 3465 H 328.169 -2.35849 1.75364 0
M  V30 3466 H 325.683 -1.24068 1.04789 0
M  V30 3467 H 327.68 -4.16822 0.0806918 0
M  V30 3468 H 326.34 -3.19475 -0.58017 0
M  V30 3469 H 327.351 -4.24687 2.96415 0
M  V30 3470 H 324.028 -4.15721 0.38504 0
M  V30 3471 H 325.418 -5.16332 4.29943 0
M  V30 3472 N 328.138 -0.959301 -1.25041 0
M  V30 3473 C 329.387 -0.612254 -1.92183 0
M  V30 3474 C 329.7 0.855347 -1.75907 0
M  V30 3475 O 330.906 1.31256 -2.37664 0
M  V30 3476 C 329.362 -1.04435 -3.44414 0
M  V30 3477 C 328.97 -2.53482 -3.69393 0
M  V30 3478 C 330.714 -0.770055 -4.17457 0
M  V30 3479 C 328.621 -2.90468 -5.15153 0
M  V30 3480 H 327.551 -0.225279 -0.719559 0
M  V30 3481 H 330.202 -1.16438 -1.41825 0
M  V30 3482 H 328.584 -0.4206 -3.9376 0
M  V30 3483 H 329.758 -3.20916 -3.30681 0
M  V30 3484 H 328.073 -2.78432 -3.0962 0
M  V30 3485 H 330.67 -1.02249 -5.24832 0
M  V30 3486 H 331.013 0.293611 -4.15263 0
M  V30 3487 H 331.546 -1.35437 -3.74034 0
M  V30 3488 H 328.285 -3.95871 -5.22462 0
M  V30 3489 H 327.805 -2.27711 -5.54894 0
M  V30 3490 H 329.484 -2.79914 -5.83315 0
M  V30 3491 N 329.616 1.39756 -0.72842 0
M  V30 3492 C 331.032 1.5442 -0.403308 0
M  V30 3493 C 331.232 1.69694 1.08656 0
M  V30 3494 O 330.288 1.69373 1.87267 0
M  V30 3495 C 331.601 2.76555 -1.18058 0
M  V30 3496 C 333.149 2.90384 -1.16815 0
M  V30 3497 C 333.624 4.15449 -1.92785 0
M  V30 3498 N 335.115 4.22475 -1.89918 0
M  V30 3499 C 335.85 5.1818 -2.45514 0
M  V30 3500 N 335.346 6.19714 -3.09719 0
M  V30 3501 N 337.139 5.1035 -2.35584 0
M  V30 3502 H 329.29 1.28089 -1.69431 0
M  V30 3503 H 331.553 0.620327 -0.716867 0
M  V30 3504 H 331.259 2.7159 -2.23455 0
M  V30 3505 H 331.133 3.69033 -0.780662 0
M  V30 3506 H 333.52 2.94846 -0.12234 0
M  V30 3507 H 333.601 1.98988 -1.6074 0
M  V30 3508 H 333.245 4.11749 -2.97364 0
M  V30 3509 H 333.175 5.05877 -1.46272 0
M  V30 3510 H 335.666 3.49743 -1.43138 0
M  V30 3511 H 335.979 6.8919 -3.49625 0
M  V30 3512 H 334.324 6.20121 -3.13807 0
M  V30 3513 H 337.515 4.2996 -1.85072 0
M  V30 3514 H 337.688 5.84761 -2.79211 0
M  V30 3515 N 331.094 0.475555 1.50254 0
M  V30 3516 C 332.026 -0.352649 2.26471 0
M  V30 3517 C 333.039 -0.953165 1.3198 0
M  V30 3518 O 334.228 -0.840815 1.57457 0
M  V30 3519 C 331.328 -1.50902 3.0345 0
M  V30 3520 C 330.501 -1.02047 4.25329 0
M  V30 3521 C 329.56 -2.05142 4.84565 0
M  V30 3522 O 328.586 -1.63023 5.45355 0
M  V30 3523 N 329.788 -3.37987 4.71959 0
M  V30 3524 H 332.553 0.300767 2.98187 0
M  V30 3525 H 330.114 0.306598 1.5897 0
M  V30 3526 H 332.106 -2.19572 3.39956 0
M  V30 3527 H 330.676 -2.06705 2.34504 0
M  V30 3528 H 329.896 -0.159507 3.93877 0
M  V30 3529 H 331.184 -0.672061 5.04342 0
M  V30 3530 H 330.582 -3.74913 4.23623 0
M  V30 3531 H 329.139 -4.02443 5.12721 0
M  V30 3532 N 332.573 -1.56217 0.208337 0
M  V30 3533 C 333.523 -2.16324 -0.720281 0
M  V30 3534 C 334.507 -1.10775 -1.16695 0
M  V30 3535 O 335.699 -1.36801 -1.12314 0
M  V30 3536 C 332.828 -2.83644 -1.93393 0
M  V30 3537 C 331.914 -3.96401 -1.50755 0
M  V30 3538 N 332.305 -4.99546 -0.792937 0
M  V30 3539 C 330.603 -4.08246 -1.79585 0
M  V30 3540 C 331.304 -5.78828 -0.577364 0
M  V30 3541 N 330.28 -5.31723 -1.1301 0
M  V30 3542 H 334.082 -2.93432 -0.165725 0
M  V30 3543 H 331.596 -1.62397 0.00906463 0
M  V30 3544 H 333.593 -3.25107 -2.60981 0
M  V30 3545 H 332.253 -2.08027 -2.49308 0
M  V30 3546 H 333.264 -5.15967 -0.447004 0
M  V30 3547 H 329.941 -3.4377 -2.36915 0
M  V30 3548 H 331.331 -6.71899 -0.00952956 0
M  V30 3549 N 334.051 0.0651679 -1.57465 0
M  V30 3550 C 335.276 0.779605 -1.9219 0
M  V30 3551 C 335.701 1.69988 -0.805333 0
M  V30 3552 O 335.059 1.79685 0.241435 0
M  V30 3553 C 335.107 1.54364 -3.2589 0
M  V30 3554 O 334.211 2.65474 -3.1559 0
M  V30 3555 H 333.552 0.212249 -0.629163 0
M  V30 3556 H 336.082 0.0314294 -2.04576 0
M  V30 3557 H 336.092 1.92146 -3.59922 0
M  V30 3558 H 334.767 0.868457 -4.06732 0
M  V30 3559 H 333.344 2.30501 -2.93128 0
M  V30 3560 N 335.529 1.53961 0.336706 0
M  V30 3561 C 336.492 1.81724 1.39675 0
M  V30 3562 C 337.492 0.688532 1.45313 0
M  V30 3563 O 338.682 0.956829 1.45569 0
M  V30 3564 C 335.814 1.96543 2.78538 0
M  V30 3565 H 337.007 2.76424 1.16318 0
M  V30 3566 H 334.56 1.45478 0.571474 0
M  V30 3567 H 335.295 1.0401 3.07168 0
M  V30 3568 H 335.08 2.78665 2.75841 0
M  V30 3569 H 336.57 2.19516 3.5525 0
M  V30 3570 N 337.007 -0.598083 1.45811 0
M  V30 3571 C 337.937 -1.71873 1.58057 0
M  V30 3572 C 338.918 -1.64533 0.431615 0
M  V30 3573 O 340.103 -1.82787 0.65595 0
M  V30 3574 C 337.233 -3.10495 1.55597 0
M  V30 3575 C 336.187 -3.32654 2.69305 0
M  V30 3576 C 335.513 -4.71646 2.51902 0
M  V30 3577 C 336.813 -3.21981 4.11248 0
M  V30 3578 H 338.507 -1.61881 2.51863 0
M  V30 3579 H 336.053 -0.777372 1.21214 0
M  V30 3580 H 338.006 -3.88699 1.6276 0
M  V30 3581 H 336.73 -3.2135 0.583255 0
M  V30 3582 H 335.389 -2.56843 2.61586 0
M  V30 3583 H 335.037 -4.79246 1.52748 0
M  V30 3584 H 334.737 -4.87426 3.2816 0
M  V30 3585 H 336.261 -5.52038 2.60933 0
M  V30 3586 H 337.675 -3.90049 4.20161 0
M  V30 3587 H 336.072 -3.49289 4.87972 0
M  V30 3588 H 337.142 -2.1928 4.32486 0
M  V30 3589 N 338.485 -1.33259 -0.841409 0
M  V30 3590 C 339.713 -1.27605 -1.62864 0
M  V30 3591 C 340.128 0.153507 -1.88175 0
M  V30 3592 O 339.485 1.09485 -1.46011 0
M  V30 3593 C 339.536 -2.04596 -2.98031 0
M  V30 3594 O 339.257 -3.41975 -2.73834 0
M  V30 3595 C 340.758 -2.06122 -3.92465 0
M  V30 3596 H 337.978 -0.439718 -0.506842 0
M  V30 3597 H 340.522 -1.75591 -1.04824 0
M  V30 3598 H 338.677 -1.60299 -3.5268 0
M  V30 3599 H 339.091 -3.81549 -3.59889 0
M  V30 3600 H 340.565 -2.64451 -4.84531 0
M  V30 3601 H 341.042 -1.05083 -4.26444 0
M  V30 3602 H 341.648 -2.50427 -3.43753 0
M  V30 3603 N 339.963 1.05934 -1.16686 0
M  V30 3604 C 341.379 1.30938 -0.912542 0
M  V30 3605 C 341.579 1.96803 0.432533 0
M  V30 3606 O 340.635 2.23693 1.17123 0
M  V30 3607 C 341.948 2.18649 -2.06429 0
M  V30 3608 C 343.496 2.32055 -2.10047 0
M  V30 3609 C 343.971 3.23122 -3.24586 0
M  V30 3610 N 345.462 3.30706 -3.24327 0
M  V30 3611 C 346.197 4.01273 -4.09594 0
M  V30 3612 N 345.693 4.74332 -5.04956 0
M  V30 3613 N 347.486 3.97361 -3.97569 0
M  V30 3614 H 339.637 0.615777 -2.03278 0
M  V30 3615 H 341.9 0.334077 -0.887185 0
M  V30 3616 H 341.606 1.77534 -3.03603 0
M  V30 3617 H 341.48 3.19252 -2.00894 0
M  V30 3618 H 343.867 2.72415 -1.13464 0
M  V30 3619 H 343.948 1.31107 -2.19647 0
M  V30 3620 H 343.592 2.83477 -4.2143 0
M  V30 3621 H 343.522 4.24057 -3.12223 0
M  V30 3622 H 346.013 2.78644 -2.55276 0
M  V30 3623 H 346.326 5.25716 -5.6643 0
M  V30 3624 H 344.671 4.733 -5.08933 0
M  V30 3625 H 347.862 3.39405 -3.22369 0
M  V30 3626 H 348.035 4.52089 -4.64241 0
M  V30 3627 N 341.441 0.965919 1.2453 0
M  V30 3628 C 342.371 0.513476 2.27784 0
M  V30 3629 C 343.352 -0.445974 1.6415 0
M  V30 3630 O 344.537 -0.342485 1.91156 0
M  V30 3631 C 341.667 -0.198839 3.4673 0
M  V30 3632 C 340.621 0.676456 4.2262 0
M  V30 3633 C 339.947 -0.167248 5.34438 0
M  V30 3634 C 341.247 1.96017 4.84123 0
M  V30 3635 H 342.941 1.3765 2.65881 0
M  V30 3636 H 340.487 0.663321 1.27813 0
M  V30 3637 H 342.44 -0.526567 4.18097 0
M  V30 3638 H 341.164 -1.0962 3.07654 0
M  V30 3639 H 339.823 0.98743 3.53052 0
M  V30 3640 H 339.471 -1.0647 4.91603 0
M  V30 3641 H 339.171 0.415181 5.86131 0
M  V30 3642 H 340.695 -0.489688 6.08633 0
M  V30 3643 H 342.109 1.69814 5.47573 0
M  V30 3644 H 340.506 2.48918 5.4604 0
M  V30 3645 H 341.576 2.65622 4.05676 0
M  V30 3646 N 342.919 -1.39368 0.735821 0
M  V30 3647 C 344.335 -1.54204 0.411492 0
M  V30 3648 C 344.535 -1.70268 -1.07755 0
M  V30 3649 O 343.591 -1.70364 -1.86366 0
M  V30 3650 C 344.904 -2.75925 1.19523 0
M  V30 3651 C 346.452 -2.89761 1.18354 0
M  V30 3652 C 346.927 -4.14421 1.94986 0
M  V30 3653 N 348.418 -4.21462 1.92156 0
M  V30 3654 C 349.153 -5.16871 2.48258 0
M  V30 3655 N 348.649 -6.18063 3.13001 0
M  V30 3656 N 350.442 -5.09093 2.38287 0
M  V30 3657 H 342.593 -1.27189 1.70108 0
M  V30 3658 H 344.856 -0.616517 0.720147 0
M  V30 3659 H 344.562 -2.70401 2.24892 0
M  V30 3660 H 344.436 -3.68614 0.800222 0
M  V30 3661 H 346.823 -2.94777 0.137975 0
M  V30 3662 H 346.904 -1.98133 1.61793 0
M  V30 3663 H 346.548 -4.10166 2.99543 0
M  V30 3664 H 346.478 -5.05095 1.48953 0
M  V30 3665 H 348.969 -3.48979 1.44991 0
M  V30 3666 H 349.282 -6.87326 3.53275 0
M  V30 3667 H 347.627 -6.18448 3.17091 0
M  V30 3668 H 350.818 -4.28973 1.8735 0
M  V30 3669 H 350.991 -5.83272 2.82308 0
M  V30 3670 N 344.397 -0.483516 -1.5 0
M  V30 3671 C 345.327 0.293829 -2.31644 0
M  V30 3672 C 346.308 0.978864 -1.39112 0
M  V30 3673 O 347.493 0.973644 -1.68029 0
M  V30 3674 C 344.623 1.36897 -3.19181 0
M  V30 3675 C 343.577 0.804833 -4.20365 0
M  V30 3676 C 342.903 1.9792 -4.96721 0
M  V30 3677 C 344.203 -0.192313 -5.21946 0
M  V30 3678 H 345.897 -0.387616 -2.9688 0
M  V30 3679 H 343.443 -0.187856 -1.42769 0
M  V30 3680 H 345.396 1.92037 -3.751 0
M  V30 3681 H 344.12 2.07936 -2.51853 0
M  V30 3682 H 342.779 0.275319 -3.65565 0
M  V30 3683 H 342.427 2.67686 -4.25856 0
M  V30 3684 H 342.127 1.60789 -5.65173 0
M  V30 3685 H 343.651 2.53526 -5.55479 0
M  V30 3686 H 345.065 0.270333 -5.72662 0
M  V30 3687 H 343.462 -0.478543 -5.98189 0
M  V30 3688 H 344.532 -1.11409 -4.71928 0
M  V30 3689 N 345.875 1.56104 -0.216619 0
M  V30 3690 C 347.291 1.58995 0.13886 0
M  V30 3691 C 347.491 1.23333 1.59346 0
M  V30 3692 O 346.547 0.966234 2.33281 0
M  V30 3693 C 347.86 3.00143 -0.182968 0
M  V30 3694 C 349.408 3.12751 -0.124807 0
M  V30 3695 C 349.883 4.56068 -0.420241 0
M  V30 3696 N 351.374 4.61723 -0.369634 0
M  V30 3697 C 352.109 5.70542 -0.571789 0
M  V30 3698 N 351.605 6.87744 -0.835453 0
M  V30 3699 N 353.398 5.59831 -0.504563 0
M  V30 3700 H 345.549 1.77562 -1.16557 0
M  V30 3701 H 347.812 0.825091 -0.466828 0
M  V30 3702 H 347.518 3.30871 -1.19237 0
M  V30 3703 H 347.392 3.73813 0.504367 0
M  V30 3704 H 349.779 2.81822 0.875223 0
M  V30 3705 H 349.86 2.41421 -0.845544 0
M  V30 3706 H 349.504 4.87713 -1.41769 0
M  V30 3707 H 349.434 5.25617 0.321631 0
M  V30 3708 H 351.925 3.77502 -0.173338 0
M  V30 3709 H 352.238 7.66587 -0.977938 0
M  V30 3710 H 350.583 6.895 -0.872592 0
M  V30 3711 H 353.774 4.67145 -0.298842 0
M  V30 3712 H 353.947 6.44573 -0.665519 0
M  V30 3713 N 347.353 -0.0568162 1.57498 0
M  V30 3714 C 348.301 -1.08452 2.05769 0
M  V30 3715 C 349.295 -1.39164 0.965903 0
M  V30 3716 O 350.501 -1.38395 1.15095 0
M  V30 3717 H 346.876 -0.367148 0.656282 0
M  V30 3718 H 348.847 -0.651368 2.91204 0
M  V30 3719 C 347.596 -2.38543 2.52968 0
M  V30 3720 H 346.919 -2.15765 3.36579 0
M  V30 3721 H 348.359 -3.08863 2.90481 0
M  V30 3722 C 346.818 -3.05562 1.41893 0
M  V30 3723 O 347.348 -3.94262 0.769442 0
M  V30 3724 N 345.554 -2.6643 1.16032 0
M  V30 3725 H 345.101 -1.94387 1.6903 0
M  V30 3726 H 345.059 -3.11593 0.419219 0
M  V30 3727 N 348.832 -1.54138 -0.328536 0
M  V30 3728 C 350.078 -1.7236 -1.06865 0
M  V30 3729 C 350.411 -0.493231 -1.87832 0
M  V30 3730 O 349.686 0.5098 -1.877 0
M  V30 3731 C 349.969 -2.99621 -1.99747 0
M  V30 3732 C 349.822 -4.32899 -1.22143 0
M  V30 3733 C 351.141 -3.22615 -2.99345 0
M  V30 3734 H 348.26 -0.627151 -0.387105 0
M  V30 3735 H 350.902 -1.86827 -0.345767 0
M  V30 3736 H 349.052 -2.87418 -2.61387 0
M  V30 3737 H 350.724 -4.56978 -0.630017 0
M  V30 3738 H 348.967 -4.30628 -0.523628 0
M  V30 3739 H 349.638 -5.18154 -1.90318 0
M  V30 3740 H 352.114 -3.34248 -2.47826 0
M  V30 3741 H 350.99 -4.13027 -3.61524 0
M  V30 3742 H 351.251 -2.3961 -3.71536 0
M  V30 3743 N 350.31 0.590341 -1.46126 0
M  V30 3744 C 351.557 1.34882 -1.5104 0
M  V30 3745 C 351.885 1.93849 -0.159021 0
M  V30 3746 O 351.14 1.76544 0.844436 0
M  V30 3747 C 351.439 2.5032 -2.55097 0
M  V30 3748 C 351.105 2.09394 -3.99331 0
M  V30 3749 C 349.767 1.97947 -4.38601 0
M  V30 3750 C 352.119 1.77712 -4.89967 0
M  V30 3751 C 349.447 1.53065 -5.66381 0
M  V30 3752 C 351.799 1.34312 -6.18177 0
M  V30 3753 C 350.463 1.21436 -6.56361 0
M  V30 3754 H 349.733 0.493568 -0.552695 0
M  V30 3755 H 352.38 0.665539 -1.79563 0
M  V30 3756 H 350.685 3.24062 -2.20207 0
M  V30 3757 H 352.382 3.08541 -2.56132 0
M  V30 3758 H 348.972 2.19235 -3.68285 0
M  V30 3759 H 353.156 1.85445 -4.60352 0
M  V30 3760 H 348.412 1.41733 -5.94745 0
M  V30 3761 H 352.586 1.08849 -6.87841 0
M  V30 3762 H 350.213 0.864345 -7.5527 0
M  V30 3763 N 351.788 1.33704 0.83433 0
M  V30 3764 C 353.204 1.13137 1.12571 0
M  V30 3765 C 353.404 -0.0747261 2.01361 0
M  V30 3766 O 352.46 -0.753647 2.4099 0
M  V30 3767 C 353.773 2.42105 1.78342 0
M  V30 3768 C 355.321 2.48054 1.90888 0
M  V30 3769 C 355.796 3.76995 2.60075 0
M  V30 3770 N 357.287 3.78092 2.67584 0
M  V30 3771 C 358.022 4.74574 3.21818 0
M  V30 3772 N 357.518 5.81434 3.76705 0
M  V30 3773 N 359.311 4.62044 3.20112 0
M  V30 3774 H 351.462 2.11 0.243489 0
M  V30 3775 H 353.725 0.932532 0.17055 0
M  V30 3776 H 353.431 3.30391 1.20561 0
M  V30 3777 H 353.305 2.54594 2.7832 0
M  V30 3778 H 355.692 1.60215 2.47821 0
M  V30 3779 H 355.773 2.39502 0.898459 0
M  V30 3780 H 355.417 4.65219 2.03799 0
M  V30 3781 H 355.347 3.82825 3.61597 0
M  V30 3782 H 357.838 3.00865 2.28667 0
M  V30 3783 H 358.151 6.51084 4.16305 0
M  V30 3784 H 356.496 5.85163 3.7498 0
M  V30 3785 H 359.687 3.77716 2.76493 0
M  V30 3786 H 359.86 5.37406 3.62076 0
M  V30 3787 N 353.266 -1.05314 1.17247 0
M  V30 3788 C 354.682 -1.30452 0.919473 0
M  V30 3789 C 354.882 -1.9703 -0.42209 0
M  V30 3790 O 353.938 -2.24311 -1.15935 0
M  V30 3791 C 355.251 -2.17551 2.07586 0
M  V30 3792 C 356.799 -2.30937 2.11275 0
M  V30 3793 C 357.274 -3.21396 3.26296 0
M  V30 3794 N 358.765 -3.28981 3.26076 0
M  V30 3795 C 359.5 -3.99095 4.11716 0
M  V30 3796 N 358.996 -4.71648 5.07465 0
M  V30 3797 N 360.789 -3.95247 3.9967 0
M  V30 3798 H 352.94 -0.604988 2.03602 0
M  V30 3799 H 355.203 -0.329368 0.888944 0
M  V30 3800 H 354.909 -1.75921 3.0454 0
M  V30 3801 H 354.783 -3.18182 2.02584 0
M  V30 3802 H 357.17 -2.71809 1.14907 0
M  V30 3803 H 357.251 -1.2994 2.20339 0
M  V30 3804 H 356.895 -2.81238 4.22927 0
M  V30 3805 H 356.825 -4.22395 3.14467 0
M  V30 3806 H 359.316 -2.77286 2.5675 0
M  V30 3807 H 359.629 -5.22705 5.6921 0
M  V30 3808 H 357.974 -4.70594 5.11435 0
M  V30 3809 H 361.165 -3.37691 3.24164 0
M  V30 3810 H 361.338 -4.4962 4.66632 0
M  V30 3811 N 354.744 -0.972509 -1.24016 0
M  V30 3812 C 355.991 -0.637034 -1.92219 0
M  V30 3813 C 356.319 0.828418 -1.75976 0
M  V30 3814 O 355.574 1.61206 -1.10955 0
M  V30 3815 C 355.873 -0.963694 -3.44162 0
M  V30 3816 C 355.539 -2.41807 -3.80579 0
M  V30 3817 C 354.201 -2.81556 -3.9023 0
M  V30 3818 C 356.553 -3.36172 -3.98293 0
M  V30 3819 C 353.881 -4.14702 -4.15017 0
M  V30 3820 C 356.233 -4.68952 -4.24578 0
M  V30 3821 C 354.897 -5.08472 -4.32449 0
M  V30 3822 H 354.167 -0.233107 -0.703379 0
M  V30 3823 H 356.814 -1.2249 -1.47202 0
M  V30 3824 H 355.119 -0.29365 -3.90698 0
M  V30 3825 H 356.816 -0.682449 -3.9515 0
M  V30 3826 H 353.406 -2.09988 -3.73635 0
M  V30 3827 H 357.59 -3.06644 -3.90234 0
M  V30 3828 H 352.846 -4.4494 -4.19331 0
M  V30 3829 H 357.02 -5.42037 -4.37229 0
M  V30 3830 H 354.647 -6.11665 -4.51409 0
M  V30 3831 N 356.222 1.38976 -0.743202 0
M  V30 3832 C 357.152 2.33171 -0.123873 0
M  V30 3833 C 358.133 1.54336 0.71516 0
M  V30 3834 O 359.318 1.82696 0.658467 0
M  V30 3835 C 356.448 3.38474 0.777978 0
M  V30 3836 C 355.402 4.27979 0.0424758 0
M  V30 3837 C 354.728 5.2405 1.06189 0
M  V30 3838 C 356.028 5.10155 -1.1198 0
M  V30 3839 H 357.722 2.85213 -0.910709 0
M  V30 3840 H 355.268 1.37133 -0.439388 0
M  V30 3841 H 357.221 4.03328 1.22084 0
M  V30 3842 H 355.945 2.84891 1.59702 0
M  V30 3843 H 354.604 3.64616 -0.380853 0
M  V30 3844 H 354.252 4.66758 1.87472 0
M  V30 3845 H 353.952 5.84785 0.574485 0
M  V30 3846 H 355.476 5.9178 1.50428 0
M  V30 3847 H 356.89 5.68307 -0.75499 0
M  V30 3848 H 355.287 5.80073 -1.53738 0
M  V30 3849 H 356.357 4.44504 -1.93764 0
M  V30 3850 N 357.7 0.491464 1.49741 0
M  V30 3851 C 359.116 0.146835 1.58923 0
M  V30 3852 C 359.316 -1.34804 1.49767 0
M  V30 3853 O 358.372 -2.12317 1.36667 0
M  V30 3854 C 359.685 0.715157 2.92072 0
M  V30 3855 C 361.233 0.680407 3.05515 0
M  V30 3856 C 361.708 1.22663 4.41269 0
M  V30 3857 N 363.199 1.18691 4.47735 0
M  V30 3858 C 363.934 1.57984 5.51207 0
M  V30 3859 N 363.43 2.04824 6.6183 0
M  V30 3860 N 365.223 1.49459 5.41866 0
M  V30 3861 H 357.374 1.46347 1.53936 0
M  V30 3862 H 359.637 0.606453 0.728642 0
M  V30 3863 H 359.343 1.76317 3.04311 0
M  V30 3864 H 359.217 0.17018 3.76816 0
M  V30 3865 H 361.604 -0.358743 2.92911 0
M  V30 3866 H 361.685 1.26242 2.22478 0
M  V30 3867 H 361.329 2.26451 4.54623 0
M  V30 3868 H 361.259 0.620637 5.2293 0
M  V30 3869 H 363.75 0.843605 3.68364 0
M  V30 3870 H 364.063 2.32901 7.3687 0
M  V30 3871 H 362.408 2.08791 6.62896 0
M  V30 3872 H 365.599 1.12692 4.54333 0
M  V30 3873 H 365.772 1.80406 6.22381 0
M  V30 3874 N 359.178 -1.55987 0.224894 0
M  V30 3875 C 360.455 -1.90232 -0.455083 0
M  V30 3876 C 360.835 -1.14269 -1.77499 0
M  V30 3877 O 360.183 -0.253079 -2.27094 0
M  V30 3878 C 360.393 -3.42993 -0.644758 0
M  V30 3879 C 361.741 -4.13821 -0.950669 0
M  V30 3880 O 362.765 -3.4861 -0.731423 0
M  V30 3881 O 361.624 -5.29128 -1.36695 0
M  V30 3882 H 358.718 -0.79108 -0.241084 0
M  V30 3883 H 361.264 -1.67581 0.267327 0
M  V30 3884 H 360.036 -3.90252 0.28613 0
M  V30 3885 H 359.659 -3.71434 -1.41853 0
M  V30 3886 N 360.656 0.0484629 -1.57525 0
M  V30 3887 C 361.903 0.743125 -1.88372 0
M  V30 3888 C 362.231 1.76383 -0.819715 0
M  V30 3889 O 361.486 1.94855 0.181659 0
M  V30 3890 C 361.785 1.46632 -3.25935 0
M  V30 3891 C 361.451 0.583427 -4.4711 0
M  V30 3892 C 360.113 0.340191 -4.79996 0
M  V30 3893 C 362.465 -0.0273345 -5.21193 0
M  V30 3894 C 359.793 -0.522903 -5.84365 0
M  V30 3895 C 362.145 -0.878017 -6.26477 0
M  V30 3896 C 360.809 -1.1309 -6.5785 0
M  V30 3897 H 360.079 0.271929 -0.689301 0
M  V30 3898 H 362.726 0.00336166 -1.915 0
M  V30 3899 H 361.031 2.2789 -3.18706 0
M  V30 3900 H 362.728 2.00902 -3.47044 0
M  V30 3901 H 359.318 0.783151 -4.21384 0
M  V30 3902 H 363.502 0.147654 -4.9608 0
M  V30 3903 H 358.758 -0.727335 -6.07058 0
M  V30 3904 H 362.932 -1.35789 -6.83033 0
M  V30 3905 H 360.559 -1.80144 -7.38547 0
M  V30 3906 N 362.134 1.5431 0.320358 0
M  V30 3907 C 363.066 1.80262 1.41556 0
M  V30 3908 C 364.079 0.684723 1.477 0
M  V30 3909 O 365.268 0.961886 1.50366 0
M  V30 3910 C 362.368 1.90825 2.8007 0
M  V30 3911 C 361.541 3.21023 2.97091 0
M  V30 3912 C 360.6 3.22247 4.15985 0
M  V30 3913 O 359.626 3.95871 4.08992 0
M  V30 3914 N 360.828 2.46258 5.25678 0
M  V30 3915 H 363.593 2.74778 1.19655 0
M  V30 3916 H 361.154 1.53646 0.510358 0
M  V30 3917 H 363.146 1.89067 3.57821 0
M  V30 3918 H 361.716 1.03392 2.95006 0
M  V30 3919 H 360.936 3.35715 2.06614 0
M  V30 3920 H 362.224 4.0698 3.05361 0
M  V30 3921 H 361.622 1.86037 5.34235 0
M  V30 3922 H 360.179 2.50275 6.01835 0
M  V30 3923 N 363.613 -0.582584 1.46437 0
M  V30 3924 C 365.024 -1.1647 1.45916 0
M  V30 3925 C 365.375 -1.95177 0.200077 0
M  V30 3926 O 364.5 -2.04874 -0.696819 0
M  V30 3927 C 365.095 -2.11885 2.64367 0
M  V30 3928 C 363.654 -2.65421 2.66887 0
M  V30 3929 C 362.801 -1.41294 2.38603 0
M  V30 3930 H 365.752 -0.370514 1.54314 0
M  V30 3931 H 365.773 -2.9535 2.39892 0
M  V30 3932 H 365.285 -1.54573 3.5599 0
M  V30 3933 H 363.386 -3.26602 1.79338 0
M  V30 3934 H 363.499 -3.08147 3.66854 0
M  V30 3935 H 361.863 -1.71109 1.88663 0
M  V30 3936 H 362.646 -0.858125 3.32402 0
M  V30 3937 N 365.091 -1.34144 -0.827227 0
M  V30 3938 C 366.339 -1.26009 -1.58007 0
M  V30 3939 C 366.66 0.170971 -1.94249 0
M  V30 3940 O 365.93 1.10256 -1.61927 0
M  V30 3941 H 364.51 -0.463414 -0.585881 0
M  V30 3942 H 367.172 -1.68005 -0.987951 0
M  V30 3943 H 366.268 -1.86187 -2.50481 0
M  V30 3944 N 366.569 1.04691 -1.17803 0
M  V30 3945 C 367.985 1.29963 -0.926379 0
M  V30 3946 C 368.185 1.97251 0.411635 0
M  V30 3947 O 367.241 2.24922 1.14744 0
M  V30 3948 C 368.554 2.16447 -2.08737 0
M  V30 3949 C 370.102 2.29814 -2.12496 0
M  V30 3950 C 370.577 3.19661 -3.27995 0
M  V30 3951 N 372.068 3.27247 -3.27816 0
M  V30 3952 C 372.803 3.96906 -4.13827 0
M  V30 3953 N 372.299 4.6895 -5.09959 0
M  V30 3954 N 374.092 3.93122 -4.01761 0
M  V30 3955 H 366.243 0.594182 -2.0392 0
M  V30 3956 H 368.506 0.324649 -0.890678 0
M  V30 3957 H 368.212 1.74304 -3.05469 0
M  V30 3958 H 368.086 3.17103 -2.04268 0
M  V30 3959 H 370.473 2.71196 -1.16347 0
M  V30 3960 H 370.554 1.2877 -2.21025 0
M  V30 3961 H 370.198 2.78991 -4.24413 0
M  V30 3962 H 370.128 4.20722 -3.16703 0
M  V30 3963 H 372.619 2.75921 -2.58217 0
M  V30 3964 H 372.932 5.19679 -5.71974 0
M  V30 3965 H 371.277 4.67875 -5.13924 0
M  V30 3966 H 374.468 3.35967 -3.2595 0
M  V30 3967 H 374.641 4.47139 -4.6901 0
M  V30 3968 N 368.047 0.979072 1.23499 0
M  V30 3969 C 368.977 0.537606 2.27227 0
M  V30 3970 C 369.958 -0.428539 1.64613 0
M  V30 3971 O 371.143 -0.322191 1.91509 0
M  V30 3972 C 368.273 -0.162052 3.46922 0
M  V30 3973 C 367.227 0.721242 4.21879 0
M  V30 3974 C 366.553 -0.110555 5.34586 0
M  V30 3975 C 367.853 2.01141 4.82016 0
M  V30 3976 H 369.547 1.40462 2.64406 0
M  V30 3977 H 367.093 0.67684 1.27102 0
M  V30 3978 H 369.046 -0.482192 4.18632 0
M  V30 3979 H 367.77 -1.06351 3.08799 0
M  V30 3980 H 366.429 1.02482 3.51984 0
M  V30 3981 H 366.077 -1.0125 4.92704 0
M  V30 3982 H 365.777 0.477325 5.85658 0
M  V30 3983 H 367.301 -0.425107 6.09118 0
M  V30 3984 H 368.715 1.75612 5.45741 0
M  V30 3985 H 367.112 2.54695 5.43369 0
M  V30 3986 H 368.182 2.69909 4.02836 0
M  V30 3987 N 369.525 -1.3858 0.750561 0
M  V30 3988 C 370.75 -2.04997 0.314812 0
M  V30 3989 C 371.175 -1.56235 -1.04749 0
M  V30 3990 O 370.533 -0.712981 -1.66692 0
M  V30 3991 C 370.581 -3.58961 0.343415 0
M  V30 3992 O 369.685 -4.07025 -0.663628 0
M  V30 3993 H 369.026 -0.649081 0.139962 0
M  V30 3994 H 371.556 -1.77313 1.02084 0
M  V30 3995 H 371.566 -4.07542 0.193233 0
M  V30 3996 H 370.241 -3.93811 1.33738 0
M  V30 3997 H 368.818 -3.6982 -0.478307 0
M  V30 3998 N 371.003 -0.499398 -1.49478 0
M  V30 3999 C 371.935 0.316575 -2.27003 0
M  V30 4000 C 372.948 0.932047 -1.33479 0
M  V30 4001 O 374.137 0.815658 -1.58774 0
M  V30 4002 C 371.237 1.46055 -3.05812 0
M  V30 4003 C 370.41 0.952679 -4.26899 0
M  V30 4004 C 369.469 1.97407 -4.87767 0
M  V30 4005 O 368.495 1.54326 -5.4788 0
M  V30 4006 N 369.697 3.30436 -4.77276 0
M  V30 4007 H 372.462 -0.348168 -2.97671 0
M  V30 4008 H 370.023 -0.33185 -1.58463 0
M  V30 4009 H 372.015 2.14135 -3.43407 0
M  V30 4010 H 370.585 2.02948 -2.37762 0
M  V30 4011 H 369.805 0.0968248 -3.94081 0
M  V30 4012 H 371.093 0.59174 -5.05347 0
M  V30 4013 H 370.491 3.68126 -4.29534 0
M  V30 4014 H 369.048 3.94235 -5.19059 0
M  V30 4015 N 372.481 1.55866 -0.233164 0
M  V30 4016 C 373.413 2.18099 0.704668 0
M  V30 4017 C 374.426 1.15334 1.14899 0
M  V30 4018 O 375.615 1.42262 1.07814 0
M  V30 4019 C 372.715 2.7592 1.96777 0
M  V30 4020 C 371.888 4.03969 1.67713 0
M  V30 4021 C 370.947 4.46242 2.78845 0
M  V30 4022 O 369.973 5.12903 2.46818 0
M  V30 4023 N 371.175 4.12886 4.08051 0
M  V30 4024 H 373.94 2.99205 0.172258 0
M  V30 4025 H 371.501 1.61815 -0.0525945 0
M  V30 4026 H 373.493 3.01165 2.70337 0
M  V30 4027 H 372.063 1.99051 2.41034 0
M  V30 4028 H 371.283 3.86459 0.777391 0
M  V30 4029 H 372.571 4.8748 1.4574 0
M  V30 4030 H 371.969 3.59342 4.3691 0
M  V30 4031 H 370.526 4.42997 4.78118 0
M  V30 4032 N 373.959 -0.0401083 1.57549 0
M  V30 4033 C 374.892 -1.07689 2.01192 0
M  V30 4034 C 375.87 -1.358 0.894273 0
M  V30 4035 O 377.054 -1.48642 1.15921 0
M  V30 4036 C 374.181 -2.41418 2.3756 0
M  V30 4037 C 373.227 -2.29237 3.59656 0
M  V30 4038 S 374.06 -1.65628 5.09242 0
M  V30 4039 C 375.216 -3.0087 5.48843 0
M  V30 4040 H 375.449 -0.705108 2.88817 0
M  V30 4041 H 372.982 -0.249724 1.52367 0
M  V30 4042 H 374.94 -3.18329 2.59186 0
M  V30 4043 H 373.601 -2.75747 1.50407 0
M  V30 4044 H 372.794 -3.27932 3.82722 0
M  V30 4045 H 372.396 -1.60469 3.37825 0
M  V30 4046 H 374.688 -3.97201 5.48851 0
M  V30 4047 H 375.631 -2.82549 6.49286 0
M  V30 4048 H 376.039 -3.02934 4.76331 0
M  V30 4049 N 375.437 -1.54477 -0.31217 0
M  V30 4050 C 376.683 -1.73483 -1.0503 0
M  V30 4051 C 377.016 -0.513125 -1.87298 0
M  V30 4052 O 376.291 0.489864 -1.8823 0
M  V30 4053 C 376.574 -3.01723 -1.96558 0
M  V30 4054 C 376.427 -4.3417 -1.17545 0
M  V30 4055 C 377.746 -3.25772 -2.95907 0
M  V30 4056 H 374.865 -0.631222 -0.380432 0
M  V30 4057 H 377.507 -1.87184 -0.325932 0
M  V30 4058 H 375.657 -2.90174 -2.58324 0
M  V30 4059 H 377.329 -4.5762 -0.581513 0
M  V30 4060 H 375.572 -4.31159 -0.477925 0
M  V30 4061 H 376.243 -5.20143 -1.84811 0
M  V30 4062 H 378.719 -3.36857 -2.44267 0
M  V30 4063 H 377.595 -4.16838 -3.57123 0
M  V30 4064 H 377.856 -2.43537 -3.68974 0
M  V30 4065 N 376.915 0.57481 -1.46744 0
M  V30 4066 C 377.848 1.69827 -1.52427 0
M  V30 4067 C 378.826 1.58151 -0.377744 0
M  V30 4068 O 380.01 1.79257 -0.58303 0
M  V30 4069 C 377.137 3.07943 -1.41027 0
M  V30 4070 C 376.183 3.38116 -2.59961 0
M  V30 4071 S 377.016 3.29313 -4.22272 0
M  V30 4072 C 378.172 4.69953 -4.13394 0
M  V30 4073 H 378.405 1.64748 -2.47478 0
M  V30 4074 H 375.938 0.754203 -1.34726 0
M  V30 4075 H 377.896 3.87619 -1.35137 0
M  V30 4076 H 376.557 3.10504 -0.473909 0
M  V30 4077 H 375.75 4.38762 -2.47999 0
M  V30 4078 H 375.352 2.66024 -2.62882 0
M  V30 4079 H 377.644 5.60517 -3.80562 0
M  V30 4080 H 378.587 4.86972 -5.14066 0
M  V30 4081 H 378.995 4.47174 -3.44522 0
M  V30 4082 N 378.394 1.34581 0.820102 0
M  V30 4083 C 379.64 1.27285 1.57881 0
M  V30 4084 C 379.973 -0.156137 1.93571 0
M  V30 4085 O 379.248 -1.10222 1.60254 0
M  V30 4086 C 379.531 2.16639 2.87645 0
M  V30 4087 C 379.384 3.68088 2.58517 0
M  V30 4088 C 380.703 2.05378 3.8924 0
M  V30 4089 H 377.822 0.463714 0.572833 0
M  V30 4090 H 380.464 1.64859 0.944539 0
M  V30 4091 H 378.614 1.84725 3.41773 0
M  V30 4092 H 380.286 4.10382 2.10676 0
M  V30 4093 H 378.529 3.89038 1.91917 0
M  V30 4094 H 379.2 4.2598 3.51063 0
M  V30 4095 H 381.676 2.33404 3.44473 0
M  V30 4096 H 380.552 2.7012 4.77835 0
M  V30 4097 H 380.813 1.0316 4.29896 0
M  V30 4098 N 379.872 -1.04064 1.18357 0
M  V30 4099 C 380.819 -2.12077 0.910603 0
M  V30 4100 C 381.789 -1.65421 -0.15 0
M  V30 4101 O 382.974 -1.90797 -0.0103614 0
M  V30 4102 C 380.114 -3.42252 0.442472 0
M  V30 4103 C 379.227 -4.0252 1.5685 0
M  V30 4104 C 378.362 -5.20657 1.05309 0
M  V30 4105 C 377.401 -5.72955 2.1538 0
M  V30 4106 N 376.538 -6.8238 1.65233 0
M  V30 4107 H 381.378 -2.34764 1.83548 0
M  V30 4108 H 378.915 -1.15157 0.915279 0
M  V30 4109 H 380.873 -4.16921 0.152534 0
M  V30 4110 H 379.503 -3.19712 -0.445428 0
M  V30 4111 H 378.555 -3.25178 1.97391 0
M  V30 4112 H 379.867 -4.37362 2.39824 0
M  V30 4113 H 379.021 -6.0244 0.717677 0
M  V30 4114 H 377.76 -4.87318 0.19293 0
M  V30 4115 H 376.765 -4.89793 2.49766 0
M  V30 4116 H 377.99 -6.08337 3.01832 0
M  V30 4117 H 375.936 -6.50917 0.815064 0
M  V30 4118 H 375.853 -7.16286 2.41805 0
M  V30 4119 H 377.121 -7.67788 1.34619 0
M  V30 4120 N 381.35 -0.985608 -1.22978 0
M  V30 4121 C 382.58 -0.674603 -1.95276 0
M  V30 4122 C 382.988 0.763483 -1.73111 0
M  V30 4123 O 382.331 1.52601 -1.02268 0
M  V30 4124 C 382.393 -0.891597 -3.48268 0
M  V30 4125 C 382.057 -2.31275 -3.94158 0
M  V30 4126 C 383.054 -3.29179 -4.02415 0
M  V30 4127 C 380.739 -2.64524 -4.27004 0
M  V30 4128 C 382.733 -4.58407 -4.42879 0
M  V30 4129 C 380.42 -3.93974 -4.67149 0
M  V30 4130 C 381.418 -4.90727 -4.75053 0
M  V30 4131 O 381.106 -6.17865 -5.14294 0
M  V30 4132 H 380.838 -0.249251 -0.628371 0
M  V30 4133 H 383.392 -1.32106 -1.5728 0
M  V30 4134 H 381.622 -0.187962 -3.86243 0
M  V30 4135 H 383.311 -0.576957 -4.01779 0
M  V30 4136 H 384.077 -3.04823 -3.77237 0
M  V30 4137 H 379.956 -1.89923 -4.2006 0
M  V30 4138 H 383.5 -5.33926 -4.48964 0
M  V30 4139 H 379.397 -4.18122 -4.91777 0
M  V30 4140 H 380.165 -6.21694 -5.32389 0
M  V30 4141 N 382.828 1.3818 -0.7579 0
M  V30 4142 C 383.758 2.33027 -0.148597 0
M  V30 4143 C 384.739 1.55085 0.69875 0
M  V30 4144 O 385.924 1.83384 0.639053 0
M  V30 4145 C 383.054 3.3928 0.742034 0
M  V30 4146 C 382.008 4.28 -0.00291946 0
M  V30 4147 C 381.334 5.25146 1.00625 0
M  V30 4148 C 382.634 5.08938 -1.17385 0
M  V30 4149 H 384.328 2.84231 -0.940909 0
M  V30 4150 H 381.874 1.36659 -0.453908 0
M  V30 4151 H 383.827 4.046 1.17799 0
M  V30 4152 H 382.551 2.86569 1.56671 0
M  V30 4153 H 381.21 3.64192 -0.419504 0
M  V30 4154 H 380.858 4.68721 1.8251 0
M  V30 4155 H 380.558 5.85361 0.512428 0
M  V30 4156 H 382.082 5.93342 1.44143 0
M  V30 4157 H 383.496 5.67474 -0.815224 0
M  V30 4158 H 381.893 5.7841 -1.59882 0
M  V30 4159 H 382.963 4.42424 -1.98468 0
M  V30 4160 N 384.306 0.507319 1.49211 0
M  V30 4161 C 385.269 -0.256763 2.27757 0
M  V30 4162 C 386.269 -0.888287 1.34038 0
M  V30 4163 O 387.459 -0.751841 1.5714 0
M  V30 4164 C 384.591 -1.36905 3.12202 0
M  V30 4165 H 385.784 0.432557 2.96764 0
M  V30 4166 H 383.337 0.262488 1.5408 0
M  V30 4167 H 384.072 -2.09233 2.47775 0
M  V30 4168 H 383.857 -0.921599 3.81115 0
M  V30 4169 H 385.347 -1.9071 3.7151 0
M  V30 4170 N 385.784 -1.5574 0.241426 0
M  V30 4171 C 387.012 -2.03208 -0.389134 0
M  V30 4172 C 387.427 -1.12082 -1.51931 0
M  V30 4173 O 386.784 -0.134183 -1.82006 0
M  V30 4174 C 386.835 -3.50064 -0.902087 0
M  V30 4175 O 386.556 -4.37717 0.18305 0
M  V30 4176 C 388.057 -4.13268 -1.60389 0
M  V30 4177 H 385.277 -0.664509 -0.0931053 0
M  V30 4178 H 387.821 -2.0124 0.36369 0
M  V30 4179 H 385.976 -3.52583 -1.60511 0
M  V30 4180 H 386.39 -5.24097 -0.205579 0
M  V30 4181 H 387.864 -5.17733 -1.91458 0
M  V30 4182 H 388.341 -3.59434 -2.52397 0
M  V30 4183 H 388.947 -4.14655 -0.945576 0
M  V30 4184 N 387.262 0.0317525 -1.57568 0
M  V30 4185 C 388.192 1.03274 -2.0942 0
M  V30 4186 C 389.173 1.3788 -0.996143 0
M  V30 4187 O 390.358 1.46811 -1.27122 0
M  V30 4188 C 387.488 2.33448 -2.57137 0
M  V30 4189 C 386.442 2.13091 -3.71182 0
M  V30 4190 C 385.768 3.49001 -4.05095 0
M  V30 4191 C 387.068 1.51928 -4.99715 0
M  V30 4192 H 388.762 0.60112 -2.93303 0
M  V30 4193 H 386.308 0.287705 -1.41097 0
M  V30 4194 H 388.261 3.03802 -2.92032 0
M  V30 4195 H 386.985 2.78665 -1.70333 0
M  V30 4196 H 385.644 1.45171 -3.36632 0
M  V30 4197 H 385.292 3.91862 -3.15362 0
M  V30 4198 H 384.992 3.36207 -4.81911 0
M  V30 4199 H 386.516 4.20721 -4.42522 0
M  V30 4200 H 387.93 2.12196 -5.32584 0
M  V30 4201 H 386.327 1.49716 -5.81124 0
M  V30 4202 H 387.397 0.484811 -4.8247 0
M  V30 4203 N 388.74 1.54641 0.303973 0
M  V30 4204 C 389.65 1.88439 1.39743 0
M  V30 4205 C 390.666 0.778239 1.55626 0
M  V30 4206 O 391.842 1.07442 1.70347 0
M  V30 4207 C 388.907 2.12212 2.74166 0
M  V30 4208 C 387.968 3.35936 2.67293 0
M  V30 4209 C 387.201 3.58566 3.95305 0
M  V30 4210 O 387.424 2.84263 4.9452 0
M  V30 4211 O 386.358 4.52078 3.97378 0
M  V30 4212 H 390.184 2.81458 1.14083 0
M  V30 4213 H 387.769 1.40793 0.499768 0
M  V30 4214 H 389.651 2.29067 3.53704 0
M  V30 4215 H 388.326 1.22379 2.99675 0
M  V30 4216 H 387.233 3.24448 1.86237 0
M  V30 4217 H 388.566 4.2589 2.46736 0
M  V30 4218 N 390.218 -0.567019 1.47046 0
M  V30 4219 C 391.634 -0.891975 1.32348 0
M  V30 4220 C 391.834 -1.99154 0.306616 0
M  V30 4221 O 390.89 -2.50883 -0.28532 0
M  V30 4222 C 392.203 -1.29449 2.7141 0
M  V30 4223 C 393.751 -1.40646 2.79621 0
M  V30 4224 C 394.226 -1.84257 4.19301 0
M  V30 4225 N 395.717 -1.91424 4.21795 0
M  V30 4226 C 396.452 -2.26476 5.26779 0
M  V30 4227 N 395.948 -2.60211 6.42077 0
M  V30 4228 N 397.741 -2.27166 5.14152 0
M  V30 4229 H 389.892 0.159074 2.11803 0
M  V30 4230 H 392.155 0.00849752 0.947962 0
M  V30 4231 H 391.861 -0.560448 3.47206 0
M  V30 4232 H 391.735 -2.25273 3.02542 0
M  V30 4233 H 394.122 -2.13133 2.04104 0
M  V30 4234 H 394.203 -0.430339 2.52154 0
M  V30 4235 H 393.847 -1.12343 4.95319 0
M  V30 4236 H 393.777 -2.82855 4.44185 0
M  V30 4237 H 396.268 -1.6778 3.38612 0
M  V30 4238 H 396.581 -2.85956 7.17948 0
M  V30 4239 H 394.926 -2.57813 6.45413 0
M  V30 4240 H 398.117 -2.00244 4.23107 0
M  V30 4241 H 398.29 -2.54154 5.96079 0
M  V30 4242 N 391.696 -1.35014 -0.812953 0
M  V30 4243 C 392.626 -1.30069 -1.93919 0
M  V30 4244 C 393.607 -0.176275 -1.69184 0
M  V30 4245 O 394.792 -0.370227 -1.90638 0
M  V30 4246 C 391.922 -1.06547 -3.30552 0
M  V30 4247 C 390.876 -2.15561 -3.69753 0
M  V30 4248 C 390.202 -1.77214 -5.04479 0
M  V30 4249 C 391.502 -3.57476 -3.808 0
M  V30 4250 H 393.196 -2.24303 -1.98314 0
M  V30 4251 H 390.742 -1.07977 -0.952736 0
M  V30 4252 H 392.695 -1.01729 -4.08937 0
M  V30 4253 H 391.419 -0.0875719 -3.26483 0
M  V30 4254 H 390.078 -2.19466 -2.9365 0
M  V30 4255 H 389.726 -0.780589 -4.96906 0
M  V30 4256 H 389.426 -2.50184 -5.31678 0
M  V30 4257 H 390.95 -1.7391 -5.8531 0
M  V30 4258 H 392.364 -3.55929 -4.4943 0
M  V30 4259 H 390.761 -4.29152 -4.19462 0
M  V30 4260 H 391.831 -3.94091 -2.82525 0
M  V30 4261 N 393.175 1.03435 -1.18907 0
M  V30 4262 C 394.138 2.09756 -0.923844 0
M  V30 4263 C 395.138 1.60528 0.093416 0
M  V30 4264 O 396.328 1.73631 -0.140727 0
M  V30 4265 C 393.46 3.38692 -0.387354 0
M  V30 4266 H 394.653 2.34719 -1.86674 0
M  V30 4267 H 392.206 1.19959 -1.00197 0
M  V30 4268 H 392.941 3.19396 0.561845 0
M  V30 4269 H 392.726 3.75742 -1.12074 0
M  V30 4270 H 394.216 4.17016 -0.220694 0
M  V30 4271 N 394.653 0.992116 1.22453 0
M  V30 4272 C 396.064 0.702776 1.72968 0
M  V30 4273 C 396.415 -0.780399 1.80012 0
M  V30 4274 O 395.54 -1.61007 1.44589 0
M  V30 4275 C 396.135 1.26903 3.14135 0
M  V30 4276 C 394.694 1.02909 3.62059 0
M  V30 4277 C 393.841 1.38969 2.39964 0
M  V30 4278 H 396.792 1.16457 1.07812 0
M  V30 4279 H 396.813 0.647223 3.74955 0
M  V30 4280 H 396.325 2.34851 3.08977 0
M  V30 4281 H 394.426 -0.0337979 3.72585 0
M  V30 4282 H 394.539 1.69191 4.48231 0
M  V30 4283 H 392.903 0.808279 2.41535 0
M  V30 4284 H 393.686 2.4792 2.37467 0
M  V30 4285 N 396.131 -1.37776 0.765217 0
M  V30 4286 C 397.547 -1.53297 0.444108 0
M  V30 4287 C 397.747 -1.72515 -1.04119 0
M  V30 4288 O 396.803 -1.74278 -1.82711 0
M  V30 4289 C 398.116 -2.73328 1.25349 0
M  V30 4290 C 399.664 -2.87185 1.24473 0
M  V30 4291 C 400.139 -4.10191 2.03733 0
M  V30 4292 N 401.63 -4.17291 2.01053 0
M  V30 4293 C 402.365 -5.11488 2.59166 0
M  V30 4294 N 401.861 -6.11285 3.26041 0
M  V30 4295 N 403.654 -5.03924 2.49032 0
M  V30 4296 H 395.805 -1.23552 1.72768 0
M  V30 4297 H 398.068 -0.601103 0.733062 0
M  V30 4298 H 397.774 -2.6557 2.30577 0
M  V30 4299 H 397.648 -3.66834 0.87823 0
M  V30 4300 H 400.035 -2.94418 0.20047 0
M  V30 4301 H 400.116 -1.94657 1.65959 0
M  V30 4302 H 399.76 -4.0372 3.08176 0
M  V30 4303 H 399.69 -5.01821 1.59633 0
M  V30 4304 H 402.181 -3.45825 1.5236 0
M  V30 4305 H 402.494 -6.79678 3.67774 0
M  V30 4306 H 400.839 -6.11583 3.30138 0
M  V30 4307 H 404.03 -4.24902 1.96407 0
M  V30 4308 H 404.203 -5.77152 2.94617 0
M  V30 4309 N 397.609 -0.515225 -1.4894 0
M  V30 4310 C 398.856 0.024215 -2.02486 0
M  V30 4311 C 399.184 1.35671 -1.39368 0
M  V30 4312 O 398.439 1.88566 -0.523574 0
M  V30 4313 C 398.738 0.210595 -3.56779 0
M  V30 4314 C 398.404 -1.04569 -4.38607 0
M  V30 4315 C 397.066 -1.39002 -4.60686 0
M  V30 4316 C 399.418 -1.88008 -4.86109 0
M  V30 4317 C 396.746 -2.568 -5.27514 0
M  V30 4318 C 399.098 -3.04972 -5.54234 0
M  V30 4319 C 397.762 -3.39768 -5.74555 0
M  V30 4320 H 397.032 0.00886088 -0.740947 0
M  V30 4321 H 399.679 -0.678263 -1.79086 0
M  V30 4322 H 397.984 0.99572 -3.78936 0
M  V30 4323 H 399.681 0.642659 -3.95817 0
M  V30 4324 H 396.271 -0.767497 -4.21672 0
M  V30 4325 H 400.455 -1.62719 -4.68867 0
M  V30 4326 H 395.711 -2.8398 -5.41447 0
M  V30 4327 H 399.885 -3.69943 -5.90013 0
M  V30 4328 H 397.512 -4.31148 -6.26112 0
M  V30 4329 N 399.087 1.5561 -0.249682 0
M  V30 4330 C 400.335 1.98618 0.373548 0
M  V30 4331 C 400.656 1.13919 1.58264 0
M  V30 4332 O 399.926 0.222637 1.94631 0
M  V30 4333 H 398.506 0.733571 0.141006 0
M  V30 4334 H 401.168 1.91748 -0.349117 0
M  V30 4335 H 400.264 3.04584 0.680796 0
M  V30 4336 N 400.565 -0.0233959 1.57583 0
M  V30 4337 C 401.793 -0.724682 1.93794 0
M  V30 4338 C 402.208 -1.68588 0.849912 0
M  V30 4339 O 401.565 -1.81676 -0.173204 0
M  V30 4340 C 401.616 -1.47684 3.29957 0
M  V30 4341 O 401.337 -0.554222 4.3458 0
M  V30 4342 C 402.838 -2.27477 3.80485 0
M  V30 4343 H 400.058 -0.203317 0.639455 0
M  V30 4344 H 402.602 0.0207653 2.04489 0
M  V30 4345 H 400.757 -2.17412 3.20641 0
M  V30 4346 H 401.171 -1.08232 5.13212 0
M  V30 4347 H 402.645 -2.7564 4.78254 0
M  V30 4348 H 403.122 -3.09144 3.11972 0
M  V30 4349 H 403.728 -1.62813 3.92902 0
M  V30 4350 N 402.043 -1.548 -0.295768 0
M  V30 4351 C 402.953 -1.89177 -1.38742 0
M  V30 4352 C 403.969 -0.786481 -1.55211 0
M  V30 4353 O 405.145 -1.08344 -1.69775 0
M  V30 4354 C 402.21 -2.13663 -2.73036 0
M  V30 4355 C 401.271 -3.37349 -2.65508 0
M  V30 4356 C 400.504 -3.60658 -3.93398 0
M  V30 4357 O 400.727 -2.86882 -4.93006 0
M  V30 4358 O 399.661 -4.54179 -3.94975 0
M  V30 4359 H 403.487 -2.82059 -1.12589 0
M  V30 4360 H 401.072 -1.41056 -0.492295 0
M  V30 4361 H 402.954 -2.3094 -3.52484 0
M  V30 4362 H 401.629 -1.23967 -2.99022 0
M  V30 4363 H 400.536 -3.25431 -1.84514 0
M  V30 4364 H 401.869 -4.27192 -2.44474 0
M  V30 4365 N 403.521 0.559213 -1.47345 0
M  V30 4366 C 404.937 0.884943 -1.32819 0
M  V30 4367 C 405.137 1.98988 -0.317173 0
M  V30 4368 O 404.193 2.51031 0.272011 0
M  V30 4369 C 405.506 1.28007 -2.72093 0
M  V30 4370 C 407.054 1.39161 -2.80363 0
M  V30 4371 C 407.529 1.82031 -4.20272 0
M  V30 4372 N 409.02 1.89185 -4.22804 0
M  V30 4373 C 409.755 2.2368 -5.27973 0
M  V30 4374 N 409.251 2.56802 -6.43447 0
M  V30 4375 N 411.044 2.24436 -5.15349 0
M  V30 4376 H 403.195 -0.170304 -2.11716 0
M  V30 4377 H 405.458 -0.0135247 -0.947904 0
M  V30 4378 H 405.164 0.542027 -3.47498 0
M  V30 4379 H 405.038 2.23665 -3.03733 0
M  V30 4380 H 407.425 2.12048 -2.05231 0
M  V30 4381 H 407.506 0.41696 -2.52379 0
M  V30 4382 H 407.15 1.09715 -4.95908 0
M  V30 4383 H 407.08 2.80495 -4.45679 0
M  V30 4384 H 409.571 1.65982 -3.39497 0
M  V30 4385 H 409.884 2.82144 -7.19454 0
M  V30 4386 H 408.229 2.54387 -6.46771 0
M  V30 4387 H 411.42 1.97998 -4.24163 0
M  V30 4388 H 411.593 2.50989 -5.97418 0
M  V30 4389 N 404.999 1.35443 0.805782 0
M  V30 4390 C 406.245 1.28952 1.56522 0
M  V30 4391 C 406.578 -0.135597 1.93726 0
M  V30 4392 O 405.853 -1.08516 1.61414 0
M  V30 4393 C 406.136 2.19678 2.85331 0
M  V30 4394 C 405.989 3.7081 2.54598 0
M  V30 4395 C 407.308 2.09495 3.8704 0
M  V30 4396 H 404.427 0.469764 0.567883 0
M  V30 4397 H 407.069 1.65851 0.927001 0
M  V30 4398 H 405.219 1.8834 3.39795 0
M  V30 4399 H 406.891 4.12593 2.06312 0
M  V30 4400 H 405.134 3.91051 1.8778 0
M  V30 4401 H 405.805 4.29679 3.46525 0
M  V30 4402 H 408.281 2.37045 3.41978 0
M  V30 4403 H 407.157 2.75173 4.74943 0
M  V30 4404 H 407.418 1.07714 4.28777 0
M  V30 4405 N 406.477 -1.02803 1.19454 0
M  V30 4406 C 407.888 -1.57667 0.999899 0
M  V30 4407 C 408.239 -1.91041 -0.446956 0
M  V30 4408 O 407.364 -1.70978 -1.32648 0
M  V30 4409 C 407.959 -2.86477 1.80877 0
M  V30 4410 C 406.518 -3.37911 1.65811 0
M  V30 4411 C 405.665 -2.11343 1.79526 0
M  V30 4412 H 408.616 -0.853214 1.33813 0
M  V30 4413 H 408.637 -3.57408 1.30536 0
M  V30 4414 H 408.149 -2.62155 2.86175 0
M  V30 4415 H 406.25 -3.67218 0.63102 0
M  V30 4416 H 406.363 -4.10885 2.46395 0
M  V30 4417 H 404.727 -2.23254 1.22596 0
M  V30 4418 H 405.51 -1.89461 2.86285 0
M  V30 4419 N 407.956 -0.998596 -1.21925 0
M  V30 4420 C 409.202 -0.678667 -1.91107 0
M  V30 4421 C 409.535 0.78791 -1.77498 0
M  V30 4422 O 408.81 1.57043 -1.1475 0
M  V30 4423 C 409.093 -1.09245 -3.43129 0
M  V30 4424 C 408.946 -2.61801 -3.6576 0
M  V30 4425 C 410.265 -0.649984 -4.35274 0
M  V30 4426 H 407.384 -0.248025 -0.694012 0
M  V30 4427 H 410.026 -1.24314 -1.43688 0
M  V30 4428 H 408.176 -0.612171 -3.83647 0
M  V30 4429 H 409.848 -3.17543 -3.34611 0
M  V30 4430 H 408.091 -3.03609 -3.09845 0
M  V30 4431 H 408.762 -2.85804 -4.7225 0
M  V30 4432 H 411.238 -1.0626 -4.02303 0
M  V30 4433 H 410.114 -0.967743 -5.40302 0
M  V30 4434 H 410.375 0.449139 -4.39813 0
M  V30 4435 N 409.434 1.37368 -0.772513 0
M  V30 4436 C 410.674 2.01512 -0.342361 0
M  V30 4437 C 411.038 1.59997 1.06136 0
M  V30 4438 O 412.239 2.16609 1.59167 0
M  V30 4439 C 410.51 3.54134 -0.482048 0
M  V30 4440 S 412.069 4.38585 -0.137272 0
M  V30 4441 H 408.887 0.698699 -0.131686 0
M  V30 4442 H 411.489 1.67552 -1.0073 0
M  V30 4443 H 410.193 3.81837 -1.50428 0
M  V30 4444 H 409.724 3.92894 0.199413 0
M  V30 4445 H 411.739 4.84594 1.06692 0
M  V30 4446 N 410.912 0.523116 1.48665 0
M  V30 4447 C 411.862 -0.263106 2.26477 0
M  V30 4448 C 412.846 -0.916005 1.32281 0
M  V30 4449 O 414.038 -0.819946 1.56863 0
M  V30 4450 C 411.167 -1.31361 3.17174 0
M  V30 4451 C 410.253 -0.665849 4.1884 0
M  V30 4452 N 410.644 0.244434 5.05209 0
M  V30 4453 C 408.942 -0.923863 4.36326 0
M  V30 4454 C 409.643 0.617443 5.78414 0
M  V30 4455 N 408.619 -0.0198686 5.43596 0
M  V30 4456 H 412.421 0.437295 2.90629 0
M  V30 4457 H 409.935 0.340675 1.58787 0
M  V30 4458 H 411.932 -1.89052 3.71571 0
M  V30 4459 H 410.592 -2.01546 2.54576 0
M  V30 4460 H 411.603 0.616621 5.14216 0
M  V30 4461 H 408.28 -1.6168 3.84923 0
M  V30 4462 H 409.67 1.36346 6.57921 0
M  V30 4463 N 412.39 -1.55475 0.257931 0
M  V30 4464 C 413.32 -2.24815 -0.630912 0
M  V30 4465 C 414.301 -1.23224 -1.17259 0
M  V30 4466 O 415.486 -1.51904 -1.20991 0
M  V30 4467 C 412.616 -2.95609 -1.82298 0
M  V30 4468 C 411.57 -4.03982 -1.41359 0
M  V30 4469 C 410.896 -4.6226 -2.68738 0
M  V30 4470 C 412.196 -5.19109 -0.57648 0
M  V30 4471 H 413.89 -2.99354 -0.0526878 0
M  V30 4472 H 411.436 -1.4398 -0.023901 0
M  V30 4473 H 413.389 -3.42822 -2.45054 0
M  V30 4474 H 412.113 -2.18577 -2.42676 0
M  V30 4475 H 410.772 -3.57555 -0.809324 0
M  V30 4476 H 410.42 -3.81915 -3.27338 0
M  V30 4477 H 410.12 -5.35424 -2.42065 0
M  V30 4478 H 411.644 -5.12212 -3.32372 0
M  V30 4479 H 413.058 -5.62479 -1.10861 0
M  V30 4480 H 411.455 -5.98729 -0.405351 0
M  V30 4481 H 412.525 -4.83174 0.408776 0
M  V30 4482 N 413.868 0.0150385 -1.57593 0
M  V30 4483 C 415.284 0.370907 -1.5523 0
M  V30 4484 C 415.484 1.75735 -0.985882 0
M  V30 4485 O 414.54 2.44944 -0.613077 0
M  V30 4486 C 415.853 0.259908 -2.99575 0
M  V30 4487 C 417.401 0.335959 -3.11192 0
M  V30 4488 C 417.876 0.254253 -4.57294 0
M  V30 4489 N 419.367 0.312618 -4.62144 0
M  V30 4490 C 420.102 0.272505 -5.72752 0
M  V30 4491 N 419.598 0.183864 -6.92556 0
M  V30 4492 N 421.391 0.323267 -5.6117 0
M  V30 4493 H 413.542 -0.892104 -1.92757 0
M  V30 4494 H 415.805 -0.340563 -0.884715 0
M  V30 4495 H 415.511 -0.693403 -3.44797 0
M  V30 4496 H 415.385 1.048 -3.62349 0
M  V30 4497 H 417.772 1.27971 -2.65909 0
M  V30 4498 H 417.853 -0.481739 -2.51223 0
M  V30 4499 H 417.497 -0.685887 -5.03247 0
M  V30 4500 H 417.427 1.09024 -5.15191 0
M  V30 4501 H 419.918 0.38307 -3.75953 0
M  V30 4502 H 420.231 0.15874 -7.72637 0
M  V30 4503 H 418.576 0.149708 -6.94839 0
M  V30 4504 H 421.767 0.390607 -4.66467 0
M  V30 4505 H 421.94 0.288539 -6.47357 0
M  V30 4506 N 415.346 1.54954 0.287554 0
M  V30 4507 C 416.276 1.89839 1.35954 0
M  V30 4508 C 417.257 0.758675 1.52244 0
M  V30 4509 O 418.442 1.01557 1.65529 0
M  V30 4510 C 415.572 2.15753 2.72154 0
M  V30 4511 C 414.526 3.3159 2.70614 0
M  V30 4512 C 413.852 3.42952 4.10229 0
M  V30 4513 C 415.152 4.68359 2.31165 0
M  V30 4514 H 416.846 2.79625 1.07007 0
M  V30 4515 H 414.392 1.3454 0.513316 0
M  V30 4516 H 416.345 2.38743 3.47246 0
M  V30 4517 H 415.069 1.22752 3.02654 0
M  V30 4518 H 413.728 3.08545 1.97979 0
M  V30 4519 H 413.376 2.47443 4.37928 0
M  V30 4520 H 413.076 4.20826 4.10097 0
M  V30 4521 H 414.6 3.68218 4.87081 0
M  V30 4522 H 416.014 4.9099 2.95976 0
M  V30 4523 H 414.411 5.49044 2.42221 0
M  V30 4524 H 415.481 4.68165 1.26291 0
M  V30 4525 N 416.824 -0.551391 1.4764 0
M  V30 4526 C 417.754 -1.66757 1.63445 0
M  V30 4527 C 418.735 -1.63077 0.483742 0
M  V30 4528 O 419.92 -1.80607 0.71377 0
M  V30 4529 C 417.05 -3.05387 1.65396 0
M  V30 4530 C 416.004 -3.23918 2.79752 0
M  V30 4531 C 415.33 -4.63393 2.66779 0
M  V30 4532 C 416.63 -3.08735 4.21284 0
M  V30 4533 H 418.324 -1.53786 2.56886 0
M  V30 4534 H 415.87 -0.738415 1.23626 0
M  V30 4535 H 417.823 -3.83325 1.75043 0
M  V30 4536 H 416.547 -3.19332 0.685195 0
M  V30 4537 H 415.206 -2.48391 2.69625 0
M  V30 4538 H 414.854 -4.74144 1.67918 0
M  V30 4539 H 414.554 -4.7674 3.43501 0
M  V30 4540 H 416.078 -5.43458 2.78364 0
M  V30 4541 H 417.492 -3.76484 4.32357 0
M  V30 4542 H 415.889 -3.33588 4.98838 0
M  V30 4543 H 416.959 -2.0541 4.39243 0
M  V30 4544 N 418.302 -1.35869 -0.798587 0
M  V30 4545 C 419.265 -1.29307 -1.89242 0
M  V30 4546 C 420.265 -0.202747 -1.59517 0
M  V30 4547 O 421.455 -0.456957 -1.681 0
M  V30 4548 C 418.587 -1.00229 -3.25833 0
M  V30 4549 H 419.78 -2.26576 -1.96478 0
M  V30 4550 H 417.333 -1.20509 -0.995358 0
M  V30 4551 H 418.068 -0.033801 -3.24282 0
M  V30 4552 H 417.853 -1.79121 -3.48795 0
M  V30 4553 H 419.343 -0.98219 -4.05885 0
M  V30 4554 N 419.78 1.02168 -1.19998 0
M  V30 4555 C 420.712 2.10705 -0.901994 0
M  V30 4556 C 421.725 1.6244 0.108216 0
M  V30 4557 O 422.914 1.78082 -0.12214 0
M  V30 4558 C 420.014 3.37291 -0.329834 0
M  V30 4559 C 419.187 4.14714 -1.39035 0
M  V30 4560 C 418.246 5.19606 -0.830432 0
M  V30 4561 O 417.272 5.48809 -1.50989 0
M  V30 4562 N 418.474 5.79366 0.362696 0
M  V30 4563 H 421.239 2.36856 -1.83628 0
M  V30 4564 H 418.8 1.18518 -1.10296 0
M  V30 4565 H 420.792 4.04657 0.0587633 0
M  V30 4566 H 419.362 3.0843 0.508891 0
M  V30 4567 H 418.582 3.42392 -1.9535 0
M  V30 4568 H 419.87 4.63226 -2.10474 0
M  V30 4569 H 419.268 5.57968 0.932081 0
M  V30 4570 H 417.825 6.48106 0.69299 0
M  V30 4571 N 421.258 1.00505 1.21394 0
M  V30 4572 C 422.221 0.570459 2.21987 0
M  V30 4573 C 423.221 -0.353211 1.56873 0
M  V30 4574 O 424.411 -0.14349 1.73608 0
M  V30 4575 C 421.543 -0.168555 3.40483 0
M  V30 4576 H 422.736 1.46021 2.6195 0
M  V30 4577 H 420.289 0.793565 1.34656 0
M  V30 4578 H 421.024 -1.07374 3.06009 0
M  V30 4579 H 420.809 0.494823 3.88965 0
M  V30 4580 H 422.299 -0.460362 4.15055 0
M  V30 4581 N 422.737 -1.36956 0.779787 0
M  V30 4582 C 423.647 -2.33965 0.172491 0
M  V30 4583 C 424.663 -1.60574 -0.670222 0
M  V30 4584 O 425.839 -1.92617 -0.588263 0
M  V30 4585 C 422.904 -3.39761 -0.690173 0
M  V30 4586 C 421.965 -4.28964 0.169924 0
M  V30 4587 C 421.198 -5.29707 -0.651662 0
M  V30 4588 O 421.421 -5.38238 -1.88827 0
M  V30 4589 O 420.355 -6.01873 -0.0566264 0
M  V30 4590 H 424.181 -2.87647 0.974321 0
M  V30 4591 H 421.766 -1.39258 0.541078 0
M  V30 4592 H 423.648 -4.04471 -1.1824 0
M  V30 4593 H 422.323 -2.88394 -1.47006 0
M  V30 4594 H 421.23 -3.67326 0.708696 0
M  V30 4595 H 422.563 -4.83656 0.913085 0
M  V30 4596 N 424.215 -0.530993 -1.48385 0
M  V30 4597 C 425.463 0.00273189 -2.021 0
M  V30 4598 C 425.784 1.34672 -1.41027 0
M  V30 4599 O 425.054 1.8724 -0.576012 0
M  V30 4600 H 423.634 0.00399774 -0.746989 0
M  V30 4601 H 426.296 -0.695054 -1.82085 0
M  V30 4602 H 425.392 0.11031 -3.11905 0
M  V30 4603 N 425.693 1.55336 -0.266172 0
M  V30 4604 C 426.603 2.2583 0.635458 0
M  V30 4605 C 427.619 1.28106 1.17749 0
M  V30 4606 O 428.795 1.61024 1.20968 0
M  V30 4607 C 425.86 2.95879 1.80712 0
M  V30 4608 C 424.921 4.09059 1.30265 0
M  V30 4609 C 424.154 4.75759 2.41846 0
M  V30 4610 O 424.377 4.41622 3.61007 0
M  V30 4611 O 423.311 5.63888 2.1051 0
M  V30 4612 H 427.137 3.03631 0.0646693 0
M  V30 4613 H 424.722 1.49361 -0.0339177 0
M  V30 4614 H 426.604 3.39932 2.49047 0
M  V30 4615 H 425.279 2.21002 2.36516 0
M  V30 4616 H 424.186 3.69482 0.586019 0
M  V30 4617 H 425.519 4.85811 0.790458 0
M  V30 4618 N 427.171 -0.0066808 1.57599 0
M  V30 4619 C 428.582 -0.550379 1.78403 0
M  V30 4620 C 428.933 -1.74339 0.900014 0
M  V30 4621 O 428.058 -2.16166 0.100713 0
M  V30 4622 C 428.653 -1.00523 3.23544 0
M  V30 4623 C 427.212 -1.49428 3.45468 0
M  V30 4624 C 426.359 -0.442444 2.73748 0
M  V30 4625 H 429.31 0.219508 1.57175 0
M  V30 4626 H 429.331 -1.87157 3.31289 0
M  V30 4627 H 428.843 -0.136735 3.87859 0
M  V30 4628 H 426.944 -2.3839 2.86358 0
M  V30 4629 H 427.057 -1.52635 4.54136 0
M  V30 4630 H 425.421 -0.902578 2.38171 0
M  V30 4631 H 426.204 0.416973 3.40758 0
M  V30 4632 N 428.649 -1.55105 -0.279332 0
M  V30 4633 C 429.889 -1.7716 -1.01949 0
M  V30 4634 C 430.253 -0.557511 -1.83728 0
M  V30 4635 O 431.454 -0.656198 -2.60667 0
M  V30 4636 C 429.725 -3.0372 -1.88385 0
M  V30 4637 S 431.284 -3.46868 -2.68752 0
M  V30 4638 H 428.102 -0.62253 -0.343478 0
M  V30 4639 H 430.704 -1.93329 -0.290572 0
M  V30 4640 H 429.408 -3.90184 -1.2722 0
M  V30 4641 H 428.939 -2.902 -2.65608 0
M  V30 4642 H 430.954 -3.05643 -3.90892 0
M  V30 4643 N 430.127 0.543554 -1.4793 0
M  V30 4644 C 431.357 1.32324 -1.58663 0
M  V30 4645 C 431.765 1.8766 -0.240896 0
M  V30 4646 O 431.108 1.66411 0.778011 0
M  V30 4647 C 431.17 2.52094 -2.56299 0
M  V30 4648 C 430.834 2.17944 -4.01683 0
M  V30 4649 C 431.831 1.74422 -4.89768 0
M  V30 4650 C 429.516 2.28884 -4.47121 0
M  V30 4651 C 431.51 1.42287 -6.21316 0
M  V30 4652 C 429.197 1.96361 -5.78693 0
M  V30 4653 C 430.195 1.53132 -6.65612 0
M  V30 4654 O 429.883 1.21029 -7.94737 0
M  V30 4655 H 429.615 0.409174 -0.538101 0
M  V30 4656 H 432.169 0.663887 -1.94375 0
M  V30 4657 H 430.399 3.20965 -2.15681 0
M  V30 4658 H 432.088 3.14165 -2.57012 0
M  V30 4659 H 432.854 1.65452 -4.55907 0
M  V30 4660 H 428.733 2.61488 -3.79664 0
M  V30 4661 H 432.277 1.08472 -6.89115 0
M  V30 4662 H 428.174 2.04967 -6.12094 0
M  V30 4663 H 428.942 1.34543 -8.07366 0
M  V30 4664 N 431.605 1.3629 0.791371 0
M  V30 4665 C 432.854 1.29742 1.54434 0
M  V30 4666 C 433.167 -0.121729 1.95221 0
M  V30 4667 O 434.373 -0.309579 2.69729 0
M  V30 4668 C 432.829 2.27623 2.78776 0
M  V30 4669 C 432.437 3.74963 2.45166 0
M  V30 4670 C 434.181 2.30047 3.56761 0
M  V30 4671 C 432.088 4.64626 3.65891 0
M  V30 4672 H 431.018 0.482113 0.579727 0
M  V30 4673 H 433.669 1.61642 0.868565 0
M  V30 4674 H 432.051 1.88714 3.48142 0
M  V30 4675 H 433.225 4.22596 1.83709 0
M  V30 4676 H 431.54 3.75295 1.80396 0
M  V30 4677 H 434.137 2.94247 4.46456 0
M  V30 4678 H 434.48 1.30846 3.95203 0
M  V30 4679 H 435.013 2.67563 2.94372 0
M  V30 4680 H 431.752 5.64883 3.32547 0
M  V30 4681 H 431.272 4.2171 4.26521 0
M  V30 4682 H 432.951 4.80801 4.32943 0
M  V30 4683 N 433.083 -1.0153 1.20538 0
M  V30 4684 C 434.499 -1.27461 0.96051 0
M  V30 4685 C 434.699 -1.98273 -0.359193 0
M  V30 4686 O 433.755 -2.27886 -1.0874 0
M  V30 4687 C 435.068 -2.10837 2.14402 0
M  V30 4688 C 436.616 -2.24099 2.18515 0
M  V30 4689 C 437.091 -3.10852 3.36355 0
M  V30 4690 N 438.582 -3.18441 3.36377 0
M  V30 4691 C 439.317 -3.85795 4.24205 0
M  V30 4692 N 438.813 -4.55264 5.22213 0
M  V30 4693 N 440.606 -3.82331 4.12043 0
M  V30 4694 H 432.757 -0.539907 2.05423 0
M  V30 4695 H 435.02 -0.30092 0.898972 0
M  V30 4696 H 434.726 -1.66144 3.09983 0
M  V30 4697 H 434.6 -3.11576 2.12604 0
M  V30 4698 H 436.987 -2.68016 1.23497 0
M  V30 4699 H 437.068 -1.22865 2.24361 0
M  V30 4700 H 436.712 -2.6764 4.31661 0
M  V30 4701 H 436.642 -4.12177 3.27746 0
M  V30 4702 H 439.133 -2.68978 2.65442 0
M  V30 4703 H 439.446 -5.04331 5.85551 0
M  V30 4704 H 437.791 -4.54085 5.26148 0
M  V30 4705 H 440.982 -3.27207 3.34743 0
M  V30 4706 H 441.155 -4.34547 4.807 0
M  V30 4707 N 434.561 -1.01147 -1.20859 0
M  V30 4708 C 435.838 -0.613136 -1.85742 0
M  V30 4709 C 436.218 0.909004 -1.90526 0
M  V30 4710 O 435.566 1.79862 -1.40932 0
M  V30 4711 C 435.776 -1.255 -3.25654 0
M  V30 4712 C 437.124 -1.3672 -4.01986 0
M  V30 4713 O 438.148 -1.21082 -3.34989 0
M  V30 4714 O 437.007 -1.6194 -5.21956 0
M  V30 4715 H 434.101 -0.210878 -0.799662 0
M  V30 4716 H 436.647 -1.10853 -1.2849 0
M  V30 4717 H 435.419 -2.29532 -3.16908 0
M  V30 4718 H 435.042 -0.746369 -3.90532 0
M  V30 4719 N 436.039 1.36541 -0.78704 0
M  V30 4720 C 437.264 2.0409 -0.369053 0
M  V30 4721 C 437.689 1.58957 1.00569 0
M  V30 4722 O 437.047 0.756926 1.64743 0
M  V30 4723 C 437.095 3.57924 -0.438466 0
M  V30 4724 O 436.199 4.08642 0.555479 0
M  V30 4725 H 435.54 0.645142 -0.157122 0
M  V30 4726 H 438.07 1.74545 -1.06749 0
M  V30 4727 H 438.08 4.06887 -0.301218 0
M  V30 4728 H 436.755 3.90127 -1.44132 0
M  V30 4729 H 435.332 3.70958 0.380088 0
M  V30 4730 N 437.518 0.538854 1.48102 0
M  V30 4731 C 438.766 0.00798599 2.02098 0
M  V30 4732 C 439.087 -1.33922 1.41739 0
M  V30 4733 O 438.357 -1.86932 0.585934 0
M  V30 4734 H 436.937 -3.62179e-05 0.747 0
M  V30 4735 H 439.599 0.7047 1.81714 0
M  V30 4736 H 438.695 -0.0937672 3.11959 0
M  V30 4737 N 438.996 -1.55193 0.274407 0
M  V30 4738 C 440.242 -1.99877 -0.343086 0
M  V30 4739 C 440.575 -1.16256 -1.55558 0
M  V30 4740 O 439.85 -0.232462 -1.93106 0
M  V30 4741 C 440.133 -3.52706 -0.725965 0
M  V30 4742 C 439.986 -4.47081 0.493818 0
M  V30 4743 C 441.305 -4.11422 -1.56268 0
M  V30 4744 H 438.424 -0.726625 -0.123229 0
M  V30 4745 H 441.066 -1.86136 0.38121 0
M  V30 4746 H 439.216 -3.64546 -1.34307 0
M  V30 4747 H 440.888 -4.47186 1.13237 0
M  V30 4748 H 439.131 -4.1877 1.13201 0
M  V30 4749 H 439.802 -5.51699 0.18217 0
M  V30 4750 H 442.278 -4.02855 -1.04151 0
M  V30 4751 H 441.154 -5.18568 -1.79939 0
M  V30 4752 H 441.415 -3.61607 -2.54348 0
M  V30 4753 N 440.474 -0.00167713 -1.576 0
M  V30 4754 C 441.437 0.974046 -2.07473 0
M  V30 4755 C 442.437 1.27143 -0.984444 0
M  V30 4756 O 443.627 1.21633 -1.24703 0
M  V30 4757 C 440.759 2.29849 -2.51759 0
M  V30 4758 H 441.952 0.54262 -2.9495 0
M  V30 4759 H 439.505 0.245829 -1.54355 0
M  V30 4760 H 440.24 2.77677 -1.67529 0
M  V30 4761 H 440.025 2.09584 -3.31386 0
M  V30 4762 H 441.515 2.9984 -2.90664 0
M  V30 4763 N 441.952 1.55251 0.271103 0
M  V30 4764 C 443.363 1.66635 0.842007 0
M  V30 4765 C 443.714 0.594631 1.86972 0
M  V30 4766 O 442.839 -0.263532 2.14789 0
M  V30 4767 C 443.434 3.02082 1.53401 0
M  V30 4768 C 441.993 3.15487 2.05293 0
M  V30 4769 C 441.14 2.62438 0.895631 0
M  V30 4770 H 444.091 1.58629 0.0474117 0
M  V30 4771 H 444.112 2.95176 2.40107 0
M  V30 4772 H 443.624 3.80062 0.785786 0
M  V30 4773 H 441.725 2.42284 2.83071 0
M  V30 4774 H 441.838 4.22075 2.26693 0
M  V30 4775 H 440.202 2.19644 1.28953 0
M  V30 4776 H 440.985 3.42923 0.160878 0
M  V30 4777 N 443.43 -0.535701 1.48216 0
M  V30 4778 C 444.658 -1.31671 1.59594 0
M  V30 4779 C 445.073 -1.87083 0.254056 0
M  V30 4780 O 444.43 -1.66112 -0.755854 0
M  V30 4781 C 444.481 -2.47158 2.63809 0
M  V30 4782 O 444.202 -1.94032 3.92789 0
M  V30 4783 C 445.703 -3.39062 2.85573 0
M  V30 4784 H 442.923 -0.400623 0.538277 0
M  V30 4785 H 445.467 -0.646827 1.94001 0
M  V30 4786 H 443.622 -3.10043 2.32276 0
M  V30 4787 H 444.036 -2.69585 4.49916 0
M  V30 4788 H 445.51 -4.16459 3.62306 0
M  V30 4789 H 445.987 -3.93941 1.94184 0
M  V30 4790 H 446.593 -2.81975 3.18387 0
M  V30 4791 N 444.908 -1.36708 -0.784132 0
M  V30 4792 C 446.185 -1.21776 -1.53069 0
M  V30 4793 C 446.565 0.193876 -2.10208 0
M  V30 4794 O 445.913 1.20012 -1.94446 0
M  V30 4795 C 446.123 -2.30395 -2.62143 0
M  V30 4796 C 447.471 -2.67325 -3.29882 0
M  V30 4797 O 448.495 -2.29478 -2.7243 0
M  V30 4798 O 447.354 -3.32485 -4.33724 0
M  V30 4799 H 444.448 -0.474459 -0.677361 0
M  V30 4800 H 446.994 -1.48454 -0.82216 0
M  V30 4801 H 445.766 -3.2498 -2.17953 0
M  V30 4802 H 445.389 -2.05112 -3.40609 0
M  V30 4803 N 446.386 1.0089 -1.21074 0
M  V30 4804 C 447.797 1.56056 -1.02486 0
M  V30 4805 C 448.148 1.91728 0.416506 0
M  V30 4806 O 447.273 1.73066 1.29912 0
M  V30 4807 C 447.868 2.83563 -1.85411 0
M  V30 4808 C 446.427 3.3523 -1.71166 0
M  V30 4809 C 445.574 2.0846 -1.82865 0
M  V30 4810 H 448.525 0.831818 -1.35154 0
M  V30 4811 H 448.546 3.55286 -1.36205 0
M  V30 4812 H 448.058 2.57569 -2.9031 0
M  V30 4813 H 446.159 3.66167 -0.689361 0
M  V30 4814 H 446.272 4.06913 -2.52901 0
M  V30 4815 H 444.636 2.21275 -1.26132 0
M  V30 4816 H 445.419 1.84883 -2.89263 0
M  V30 4817 N 447.864 1.01787 1.20321 0
M  V30 4818 C 449.112 0.706538 1.89347 0
M  V30 4819 C 449.433 -0.766289 1.79313 0
M  V30 4820 O 448.703 -1.55126 1.19635 0
M  V30 4821 H 447.283 0.258348 0.700903 0
M  V30 4822 H 449.945 1.28974 1.46122 0
M  V30 4823 H 449.041 0.991066 2.95946 0
M  V30 4824 N 449.342 -1.36122 0.79427 0
M  V30 4825 C 450.753 -1.81646 0.431446 0
M  V30 4826 C 451.104 -1.66043 -1.04518 0
M  V30 4827 O 450.229 -1.1841 -1.8113 0
M  V30 4828 C 450.824 -3.29785 0.776341 0
M  V30 4829 C 449.383 -3.73501 0.466282 0
M  V30 4830 C 448.53 -2.58313 1.00844 0
M  V30 4831 H 451.481 -1.24274 0.986995 0
M  V30 4832 H 451.502 -3.80437 0.0692413 0
M  V30 4833 H 451.014 -3.4111 1.8511 0
M  V30 4834 H 449.115 -3.67733 -0.600245 0
M  V30 4835 H 449.228 -4.68754 0.990288 0
M  V30 4836 H 447.592 -2.5102 0.431406 0
M  V30 4837 H 448.375 -2.72421 2.08906 0
M  V30 4838 N 450.82 -0.546701 -1.47814 0
M  V30 4839 C 451.73 0.21026 -2.33656 0
M  V30 4840 C 452.746 0.922413 -1.47538 0
M  V30 4841 O 453.922 0.893652 -1.80488 0
M  V30 4842 C 450.987 1.23348 -3.24016 0
M  V30 4843 C 450.048 0.529883 -4.26017 0
M  V30 4844 C 449.281 1.50435 -5.12059 0
M  V30 4845 O 449.504 2.73837 -5.00369 0
M  V30 4846 O 448.438 1.03459 -5.92942 0
M  V30 4847 H 452.264 -0.493605 -2.99662 0
M  V30 4848 H 449.849 -0.307427 -1.46203 0
M  V30 4849 H 451.731 1.82438 -3.79861 0
M  V30 4850 H 450.406 1.91945 -2.60651 0
M  V30 4851 H 449.313 -0.101948 -3.73961 0
M  V30 4852 H 450.646 -0.11445 -4.92067 0
M  V30 4853 N 452.299 1.55045 -0.282633 0
M  V30 4854 C 453.524 2.04628 0.337977 0
M  V30 4855 C 453.949 1.15937 1.48123 0
M  V30 4856 O 453.307 0.159532 1.80597 0
M  V30 4857 C 453.355 3.51854 0.78936 0
M  V30 4858 O 452.459 3.66236 1.89592 0
M  V30 4859 H 451.8 0.660434 0.0687261 0
M  V30 4860 H 454.33 2.00261 -0.419124 0
M  V30 4861 H 454.34 3.93361 1.08311 0
M  V30 4862 H 453.015 4.15873 -0.0470419 0
M  V30 4863 H 451.592 3.36633 1.60413 0
M  V30 4864 N 453.777 0.010035 1.57597 0
M  V30 4865 C 454.74 -0.963029 2.07986 0
M  V30 4866 C 455.74 -1.26619 0.991173 0
M  V30 4867 O 456.93 -1.2097 1.25347 0
M  V30 4868 C 454.062 -2.2851 2.52974 0
M  V30 4869 H 455.255 -0.526971 2.95234 0
M  V30 4870 H 452.808 -0.237639 1.54483 0
M  V30 4871 H 453.543 -2.76784 1.69 0
M  V30 4872 H 453.328 -2.07824 3.32493 0
M  V30 4873 H 454.818 -2.98294 2.9225 0
M  V30 4874 N 455.255 -1.55392 -0.262866 0
M  V30 4875 C 456.218 -1.88181 -1.30846 0
M  V30 4876 C 457.218 -0.757079 -1.41862 0
M  V30 4877 O 458.408 -1.02519 -1.40838 0
M  V30 4878 C 455.54 -2.09609 -2.68844 0
M  V30 4879 H 456.733 -2.81659 -1.02997 0
M  V30 4880 H 454.286 -1.48039 -0.501414 0
M  V30 4881 H 455.021 -1.18547 -3.01856 0
M  V30 4882 H 454.806 -2.91508 -2.62231 0
M  V30 4883 H 456.296 -2.36215 -3.44372 0
M  V30 4884 N 456.733 0.527833 -1.48498 0
M  V30 4885 C 457.981 1.28101 -1.56316 0
M  V30 4886 C 458.302 1.9352 -0.239781 0
M  V30 4887 O 457.572 1.81433 0.738849 0
M  V30 4888 H 456.152 0.475793 -0.575873 0
M  V30 4889 H 458.814 0.614052 -1.84974 0
M  V30 4890 H 457.91 2.05916 -2.34532 0
M  V30 4891 N 458.211 1.37122 0.776871 0
M  V30 4892 C 459.622 1.28667 1.35284 0
M  V30 4893 C 459.973 -0.0680035 1.96082 0
M  V30 4894 O 459.098 -0.969743 1.93455 0
M  V30 4895 C 459.693 2.32997 2.45963 0
M  V30 4896 C 458.252 2.28191 2.99342 0
M  V30 4897 C 457.399 2.17101 1.72517 0
M  V30 4898 H 460.35 1.47819 0.577527 0
M  V30 4899 H 460.371 1.97366 3.2531 0
M  V30 4900 H 459.883 3.3158 2.01684 0
M  V30 4901 H 457.984 1.33115 3.4801 0
M  V30 4902 H 458.097 3.21397 3.55304 0
M  V30 4903 H 456.461 1.63562 1.95242 0
M  V30 4904 H 457.244 3.17591 1.30348 0
M  V30 4905 N 459.689 -1.00246 1.21608 0
M  V30 4906 C 461.1 -1.55511 1.03312 0
M  V30 4907 C 461.451 -1.91946 -0.406332 0
M  V30 4908 O 460.576 -1.73753 -1.28992 0
M  V30 4909 C 461.171 -2.82576 1.86913 0
M  V30 4910 C 459.73 -3.34318 1.72941 0
M  V30 4911 C 458.877 -2.07487 1.83968 0
M  V30 4912 H 461.828 -0.824638 1.35593 0
M  V30 4913 H 461.849 -3.54559 1.38087 0
M  V30 4914 H 461.361 -2.56026 2.91672 0
M  V30 4915 H 459.462 -3.65797 0.70877 0
M  V30 4916 H 459.575 -4.05566 2.55055 0
M  V30 4917 H 457.939 -2.20603 1.27304 0
M  V30 4918 H 458.722 -1.83346 2.9024 0
M  V30 4919 N 461.167 -1.02423 -1.1978 0
M  V30 4920 C 462.395 -0.737456 -1.93311 0
M  V30 4921 C 462.81 0.703023 -1.75223 0
M  V30 4922 O 462.167 1.47761 -1.07112 0
M  V30 4923 C 462.218 -1.0733 -3.45199 0
M  V30 4924 O 461.939 -2.4572 -3.62702 0
M  V30 4925 C 463.44 -0.80866 -4.35862 0
M  V30 4926 H 460.66 -0.2702 -0.614193 0
M  V30 4927 H 463.204 -1.36747 -1.52054 0
M  V30 4928 H 461.359 -0.488545 -3.84307 0
M  V30 4929 H 461.773 -2.58081 -4.56612 0
M  V30 4930 H 463.247 -1.09365 -5.41057 0
M  V30 4931 H 463.724 0.257025 -4.38447 0
M  V30 4932 H 464.33 -1.37592 -4.02428 0
M  V30 4933 N 462.645 1.35699 -0.801477 0
M  V30 4934 C 463.595 2.2728 -0.181073 0
M  V30 4935 C 464.579 1.47533 0.642098 0
M  V30 4936 O 465.771 1.69785 0.500193 0
M  V30 4937 C 462.9 3.36626 0.673612 0
M  V30 4938 C 461.986 4.23802 -0.159008 0
M  V30 4939 N 462.377 4.90879 -1.2195 0
M  V30 4940 C 460.675 4.45959 0.0602005 0
M  V30 4941 C 461.376 5.5546 -1.72738 0
M  V30 4942 N 460.352 5.33663 -1.03465 0
M  V30 4943 H 464.154 2.76632 -0.992582 0
M  V30 4944 H 461.668 1.49166 -0.642127 0
M  V30 4945 H 463.665 4.01179 1.13408 0
M  V30 4946 H 462.325 2.88828 1.48353 0
M  V30 4947 H 463.336 4.92497 -1.60209 0
M  V30 4948 H 460.013 4.08969 0.839664 0
M  V30 4949 H 461.403 6.18991 -2.61342 0
M  V30 4950 N 464.123 0.554532 1.47522 0
M  V30 4951 C 465.033 -0.197865 2.33764 0
M  V30 4952 C 466.049 -0.914576 1.48025 0
M  V30 4953 O 467.225 -0.884067 1.80959 0
M  V30 4954 C 464.29 -1.21628 3.24665 0
M  V30 4955 C 463.351 -0.507283 4.26292 0
M  V30 4956 C 462.584 -1.47718 5.1285 0
M  V30 4957 O 462.807 -2.7118 5.01814 0
M  V30 4958 O 461.741 -1.00313 5.93482 0
M  V30 4959 H 465.567 0.50949 2.99396 0
M  V30 4960 H 463.152 0.315176 1.46038 0
M  V30 4961 H 465.034 -1.80421 3.80823 0
M  V30 4962 H 463.709 -1.9056 2.61665 0
M  V30 4963 H 462.616 0.121778 3.73902 0
M  V30 4964 H 463.949 0.140544 4.91999 0
M  V30 4965 N 465.601 -1.54893 0.290851 0
M  V30 4966 C 466.847 -2.0023 -0.321867 0
M  V30 4967 C 467.18 -1.179 -1.54316 0
M  V30 4968 O 466.455 -0.25293 -1.92848 0
M  V30 4969 C 466.738 -3.53456 -0.688515 0
M  V30 4970 C 466.591 -4.46532 0.541209 0
M  V30 4971 C 467.91 -4.13057 -1.51895 0
M  V30 4972 H 465.029 -0.727891 -0.115515 0
M  V30 4973 H 467.671 -1.85722 0.400931 0
M  V30 4974 H 465.821 -3.6595 -1.30433 0
M  V30 4975 H 467.493 -4.4596 1.17973 0
M  V30 4976 H 465.736 -4.17545 1.17636 0
M  V30 4977 H 466.407 -5.51475 0.240675 0
M  V30 4978 H 468.883 -4.03937 -0.99872 0
M  V30 4979 H 467.759 -5.20448 -1.74429 0
M  V30 4980 H 468.02 -3.64284 -2.50498 0
M  V30 4981 N 467.08 -0.0183926 -1.57589 0
M  V30 4982 C 468.01 0.965596 -2.12599 0
M  V30 4983 C 468.991 1.34641 -1.0395 0
M  V30 4984 O 470.176 1.42693 -1.31729 0
M  V30 4985 C 467.306 2.25149 -2.64434 0
M  V30 4986 C 466.26 2.01175 -3.77773 0
M  V30 4987 C 465.586 3.35937 -4.15994 0
M  V30 4988 C 466.886 1.35953 -5.04296 0
M  V30 4989 H 468.58 0.507504 -2.95067 0
M  V30 4990 H 466.126 0.242671 -1.41941 0
M  V30 4991 H 468.079 2.94357 -3.01549 0
M  V30 4992 H 466.803 2.73105 -1.79112 0
M  V30 4993 H 465.462 1.34388 -3.4108 0
M  V30 4994 H 465.11 3.81631 -3.27669 0
M  V30 4995 H 464.81 3.20705 -4.92364 0
M  V30 4996 H 466.334 4.0643 -4.55683 0
M  V30 4997 H 467.748 1.95144 -5.39065 0
M  V30 4998 H 466.145 1.31152 -5.85593 0
M  V30 4999 H 467.215 0.331071 -4.83768 0
M  V30 5000 N 468.558 1.5553 0.254621 0
M  V30 5001 C 469.804 1.77262 0.985193 0
M  V30 5002 C 470.137 0.582286 1.85265 0
M  V30 5003 O 469.412 -0.419666 1.89919 0
M  V30 5004 C 469.695 3.0881 1.85225 0
M  V30 5005 C 469.548 4.38233 1.0135 0
M  V30 5006 C 470.867 3.3653 2.83612 0
M  V30 5007 H 467.986 0.644906 0.356742 0
M  V30 5008 H 470.628 1.88264 0.256236 0
M  V30 5009 H 468.778 2.99562 2.47376 0
M  V30 5010 H 470.45 4.59463 0.411269 0
M  V30 5011 H 468.693 4.32636 0.317574 0
M  V30 5012 H 469.364 5.26644 1.65379 0
M  V30 5013 H 471.84 3.45691 2.31596 0
M  V30 5014 H 470.716 4.29805 3.41407 0
M  V30 5015 H 470.977 2.57064 3.59681 0
M  V30 5016 N 470.036 -0.519951 1.48776 0
M  V30 5017 C 471.264 -1.29971 1.60982 0
M  V30 5018 C 471.679 -1.86803 0.273885 0
M  V30 5019 O 471.036 -1.66904 -0.738193 0
M  V30 5020 C 471.087 -2.44346 2.66415 0
M  V30 5021 O 470.808 -1.89855 3.94825 0
M  V30 5022 C 472.309 -3.36014 2.89153 0
M  V30 5023 H 469.529 -0.394891 0.542496 0
M  V30 5024 H 472.073 -0.626214 1.94676 0
M  V30 5025 H 470.228 -3.07562 2.35552 0
M  V30 5026 H 470.642 -2.64798 4.5275 0
M  V30 5027 H 472.116 -4.12593 3.66703 0
M  V30 5028 H 472.593 -3.91859 1.98351 0
M  V30 5029 H 473.199 -2.78582 3.21359 0
M  V30 5030 N 471.514 -1.37532 -0.769588 0
M  V30 5031 C 472.762 -1.32597 -1.5252 0
M  V30 5032 C 473.083 0.0884294 -1.94799 0
M  V30 5033 O 472.353 1.03289 -1.66458 0
M  V30 5034 H 470.933 -0.487846 -0.565699 0
M  V30 5035 H 473.595 -1.72044 -0.915806 0
M  V30 5036 H 472.691 -1.96643 -2.42359 0
M  V30 5037 N 472.992 0.995999 -1.22138 0
M  V30 5038 C 474.22 1.77066 -1.07029 0
M  V30 5039 C 474.635 1.8495 0.379357 0
M  V30 5040 O 473.992 1.3174 1.26297 0
M  V30 5041 C 474.043 3.20533 -1.67155 0
M  V30 5042 O 473.764 3.13082 -3.06449 0
M  V30 5043 C 475.265 4.14461 -1.5728 0
M  V30 5044 H 472.485 0.556179 -0.375374 0
M  V30 5045 H 475.029 1.25238 -1.61666 0
M  V30 5046 H 473.184 3.6944 -1.16589 0
M  V30 5047 H 473.598 4.03283 -3.35355 0
M  V30 5048 H 475.072 5.1289 -2.04078 0
M  V30 5049 H 475.549 4.36005 -0.528795 0
M  V30 5050 H 476.155 3.71449 -2.07136 0
M  V30 5051 N 474.47 1.03057 1.19235 0
M  V30 5052 C 475.718 0.726581 1.88587 0
M  V30 5053 C 476.039 -0.747227 1.80115 0
M  V30 5054 O 475.309 -1.53849 1.21274 0
M  V30 5055 H 473.889 0.265768 0.698124 0
M  V30 5056 H 476.551 1.30516 1.44746 0
M  V30 5057 H 475.647 1.0224 2.94879 0
M  V30 5058 N 475.948 -1.35272 0.808662 0
M  V30 5059 C 477.196 -1.98316 0.389233 0
M  V30 5060 C 477.517 -1.64465 -1.04767 0
M  V30 5061 O 476.787 -0.928175 -1.72516 0
M  V30 5062 H 475.367 -0.733585 0.140935 0
M  V30 5063 H 478.029 -1.6515 1.03496 0
M  V30 5064 H 477.125 -3.08123 0.496631 0
M  V30 5065 N 477.426 -0.562348 -1.47226 0
M  V30 5066 C 478.675 -0.038041 -2.01664 0
M  V30 5067 C 478.988 1.32199 -1.44162 0
M  V30 5068 O 480.194 1.9365 -1.90294 0
M  V30 5069 C 478.65 -0.0174958 -3.59896 0
M  V30 5070 C 478.258 -1.3746 -4.2639 0
M  V30 5071 C 480.002 0.453934 -4.22066 0
M  V30 5072 C 477.909 -1.31289 -5.76643 0
M  V30 5073 H 476.839 -0.0104511 -0.753928 0
M  V30 5074 H 479.49 -0.710966 -1.69167 0
M  V30 5075 H 477.872 0.721182 -3.89378 0
M  V30 5076 H 479.046 -2.1314 -4.08544 0
M  V30 5077 H 477.361 -1.78438 -3.7623 0
M  V30 5078 H 479.958 0.518584 -5.32179 0
M  V30 5079 H 480.301 1.46706 -3.89594 0
M  V30 5080 H 480.834 -0.230044 -3.97134 0
M  V30 5081 H 477.573 -2.30217 -6.13743 0
M  V30 5082 H 477.093 -0.597973 -5.96812 0
M  V30 5083 H 478.772 -1.01713 -6.38955 0
M  V30 5084 N 478.904 1.54736 -0.299062 0
M  V30 5085 C 479.836 2.20891 0.61153 0
M  V30 5086 C 480.849 1.20104 1.09904 0
M  V30 5087 O 482.038 1.46707 1.01683 0
M  V30 5088 C 479.138 2.84018 1.84897 0
M  V30 5089 C 478.311 4.10719 1.50428 0
M  V30 5090 C 477.37 4.57667 2.59667 0
M  V30 5091 O 476.396 5.2291 2.24842 0
M  V30 5092 N 477.598 4.29821 3.90172 0
M  V30 5093 H 480.363 2.99666 0.0452001 0
M  V30 5094 H 477.924 1.61446 -0.121178 0
M  V30 5095 H 479.916 3.1236 2.5732 0
M  V30 5096 H 478.486 2.09095 2.32375 0
M  V30 5097 H 477.706 3.89408 0.612781 0
M  V30 5098 H 478.994 4.93223 1.24934 0
M  V30 5099 H 478.392 3.77549 4.21276 0
M  V30 5100 H 476.949 4.62877 4.58899 0
M  V30 5101 N 480.382 0.0267497 1.57577 0
M  V30 5102 C 481.628 -0.647596 1.92815 0
M  V30 5103 C 481.983 -1.69872 0.903396 0
M  V30 5104 O 481.276 -1.91429 -0.0808881 0
M  V30 5105 C 481.47 -1.30914 3.3256 0
M  V30 5106 C 481.299 -0.323621 4.48534 0
M  V30 5107 C 480.069 0.0756607 5.05243 0
M  V30 5108 C 482.267 0.42112 5.12573 0
M  V30 5109 N 480.249 1.0566 6.04739 0
M  V30 5110 C 481.62 1.25589 6.07147 0
M  V30 5111 C 483.675 0.482077 4.95561 0
M  V30 5112 C 482.378 2.1461 6.86538 0
M  V30 5113 C 484.404 1.35962 5.75559 0
M  V30 5114 C 483.766 2.18217 6.69747 0
M  V30 5115 H 479.865 -0.209357 0.753454 0
M  V30 5116 H 482.449 0.0933695 1.94476 0
M  V30 5117 H 480.62 -2.02026 3.31723 0
M  V30 5118 H 482.352 -1.94033 3.55153 0
M  V30 5119 H 479.107 -0.298294 4.7266 0
M  V30 5120 H 479.531 1.54324 6.59176 0
M  V30 5121 H 484.173 -0.139609 4.22569 0
M  V30 5122 H 481.891 2.77835 7.58837 0
M  V30 5123 H 485.477 1.41105 5.6443 0
M  V30 5124 H 484.357 2.85022 7.3057 0
M  V30 5125 N 481.861 -1.55662 -0.24637 0
M  V30 5126 C 483.107 -1.78698 -0.971525 0
M  V30 5127 C 483.462 -0.59577 -1.82944 0
M  V30 5128 O 482.755 0.41097 -1.87141 0
M  V30 5129 C 482.949 -3.04885 -1.86494 0
M  V30 5130 C 482.778 -4.36165 -1.09501 0
M  V30 5131 C 481.548 -4.98929 -0.799895 0
M  V30 5132 C 483.746 -5.12126 -0.472334 0
M  V30 5133 N 481.728 -6.139 -0.00595299 0
M  V30 5134 C 483.099 -6.1972 0.18616 0
M  V30 5135 C 485.154 -4.96426 -0.382854 0
M  V30 5136 C 483.857 -7.13321 0.925542 0
M  V30 5137 C 485.883 -5.90405 0.342999 0
M  V30 5138 C 485.245 -6.97407 0.990128 0
M  V30 5139 H 481.344 -0.705852 -0.336597 0
M  V30 5140 H 483.928 -1.93157 -0.244615 0
M  V30 5141 H 482.099 -2.91753 -2.56388 0
M  V30 5142 H 483.831 -3.16212 -2.5257 0
M  V30 5143 H 480.586 -4.60365 -1.11181 0
M  V30 5144 H 481.01 -6.75938 0.379127 0
M  V30 5145 H 485.652 -4.13777 -0.868834 0
M  V30 5146 H 483.37 -7.9547 1.42312 0
M  V30 5147 H 486.956 -5.80333 0.412907 0
M  V30 5148 H 485.836 -7.68874 1.54282 0
M  V30 5149 N 483.339 0.512053 -1.4905 0
M  V30 5150 C 484.75 1.09376 -1.51307 0
M  V30 5151 C 485.101 1.94 -0.292971 0
M  V30 5152 O 484.226 2.07965 0.598277 0
M  V30 5153 C 484.821 1.99031 -2.74176 0
M  V30 5154 C 483.38 2.52385 -2.79247 0
M  V30 5155 C 482.527 1.29749 -2.45073 0
M  V30 5156 H 485.478 0.296467 -1.55906 0
M  V30 5157 H 485.499 2.83569 -2.53711 0
M  V30 5158 H 485.011 1.37412 -3.62959 0
M  V30 5159 H 483.112 3.17673 -1.94716 0
M  V30 5160 H 483.225 2.90293 -3.81139 0
M  V30 5161 H 481.589 1.61912 -1.96612 0
M  V30 5162 H 482.372 0.698555 -3.36118 0
M  V30 5163 N 484.817 1.37938 0.762283 0
M  V30 5164 C 486.063 1.33866 1.52341 0
M  V30 5165 C 486.396 -0.0738961 1.94059 0
M  V30 5166 O 485.671 -1.03326 1.64785 0
M  V30 5167 C 485.954 2.28644 2.78197 0
M  V30 5168 C 485.807 3.78722 2.42672 0
M  V30 5169 C 487.126 2.21702 3.80179 0
M  V30 5170 H 484.245 0.487593 0.55265 0
M  V30 5171 H 486.887 1.68717 0.873767 0
M  V30 5172 H 485.037 1.99055 3.33631 0
M  V30 5173 H 486.709 4.18948 1.93081 0
M  V30 5174 H 484.952 3.96827 1.75244 0
M  V30 5175 H 485.623 4.40486 3.3268 0
M  V30 5176 H 488.099 2.47805 3.34263 0
M  V30 5177 H 486.975 2.90143 4.65949 0
M  V30 5178 H 487.236 1.21301 4.25133 0
M  V30 5179 N 486.295 -0.989507 1.22664 0
M  V30 5180 C 487.205 -2.11449 1.01619 0
M  V30 5181 C 488.221 -1.73962 -0.036545 0
M  V30 5182 O 489.397 -2.00788 0.156924 0
M  V30 5183 C 486.462 -3.41465 0.600204 0
M  V30 5184 C 485.523 -3.93033 1.72695 0
M  V30 5185 C 484.756 -5.16844 1.33071 0
M  V30 5186 O 484.979 -5.7001 0.210975 0
M  V30 5187 O 483.913 -5.6225 2.14845 0
M  V30 5188 H 487.739 -2.32088 1.9588 0
M  V30 5189 H 485.324 -1.09823 1.01289 0
M  V30 5190 H 487.206 -4.19695 0.37873 0
M  V30 5191 H 485.881 -3.22178 -0.313511 0
M  V30 5192 H 484.788 -3.15961 2.00298 0
M  V30 5193 H 486.121 -4.16758 2.61865 0
M  V30 5194 N 487.773 -1.03688 -1.18687 0
M  V30 5195 C 488.683 -0.634908 -2.25845 0
M  V30 5196 C 489.699 0.337065 -1.70704 0
M  V30 5197 O 490.875 0.192943 -2.00474 0
M  V30 5198 C 487.94 -0.000180054 -3.467 0
M  V30 5199 C 487.001 -1.02067 -4.1699 0
M  V30 5200 C 486.234 -0.41614 -5.32075 0
M  V30 5201 O 486.457 0.778712 -5.65059 0
M  V30 5202 O 485.391 -1.14296 -5.90948 0
M  V30 5203 H 489.217 -1.52757 -2.62486 0
M  V30 5204 H 486.802 -0.807533 -1.25695 0
M  V30 5205 H 488.684 0.353342 -4.19916 0
M  V30 5206 H 487.359 0.866367 -3.11891 0
M  V30 5207 H 486.266 -1.42592 -3.45859 0
M  V30 5208 H 487.599 -1.85786 -4.5579 0
M  V30 5209 N 489.251 1.34841 -0.815825 0
M  V30 5210 C 490.161 2.33425 -0.234462 0
M  V30 5211 C 491.177 1.62295 0.627413 0
M  V30 5212 O 492.353 1.94109 0.536987 0
M  V30 5213 C 489.418 3.41471 0.599849 0
M  V30 5214 C 488.479 4.28362 -0.283596 0
M  V30 5215 C 487.712 5.31248 0.51099 0
M  V30 5216 O 487.935 5.43056 1.7449 0
M  V30 5217 O 486.869 6.01812 -0.10297 0
M  V30 5218 H 490.695 2.84962 -1.05024 0
M  V30 5219 H 488.28 1.37774 -0.577809 0
M  V30 5220 H 490.162 4.07464 1.07475 0
M  V30 5221 H 488.837 2.9219 1.39308 0
M  V30 5222 H 487.744 3.65318 -0.805836 0
M  V30 5223 H 489.077 4.81066 -1.041 0
M  V30 5224 N 490.729 0.570148 1.46925 0
M  V30 5225 C 491.975 0.0510284 2.02736 0
M  V30 5226 C 492.308 -1.3006 1.44215 0
M  V30 5227 O 491.583 -1.84932 0.602521 0
M  V30 5228 C 491.866 -0.028215 3.60089 0
M  V30 5229 C 491.719 1.35142 4.29018 0
M  V30 5230 C 493.038 -0.735181 4.33916 0
M  V30 5231 H 490.157 0.0200178 0.736728 0
M  V30 5232 H 492.799 0.73493 1.75211 0
M  V30 5233 H 490.949 -0.610648 3.83671 0
M  V30 5234 H 492.621 1.97806 4.16738 0
M  V30 5235 H 490.864 1.9226 3.88868 0
M  V30 5236 H 491.535 1.24857 5.37694 0
M  V30 5237 H 494.011 -0.240519 4.15404 0
M  V30 5238 H 492.887 -0.759622 5.43618 0
M  V30 5239 H 493.148 -1.79397 4.04066 0
M  V30 5240 N 492.207 -1.54576 0.307264 0
M  V30 5241 C 493.155 -2.25208 -0.581723 0
M  V30 5242 C 494.149 -1.26031 -1.13192 0
M  V30 5243 O 495.355 -1.43862 -1.08184 0
M  V30 5244 H 491.73 -0.723173 -0.206214 0
M  V30 5245 H 493.701 -2.98378 0.0364663 0
M  V30 5246 C 492.45 -3.01086 -1.73904 0
M  V30 5247 H 491.773 -3.77208 -1.32491 0
M  V30 5248 H 493.213 -3.5378 -2.33701 0
M  V30 5249 C 491.672 -2.08422 -2.64692 0
M  V30 5250 O 492.202 -1.65636 -3.65961 0
M  V30 5251 N 490.408 -1.74247 -2.32564 0
M  V30 5252 H 489.955 -2.09238 -1.50257 0
M  V30 5253 H 489.913 -1.12524 -2.93574 0
M  V30 5254 N 493.685 -0.035106 -1.57561 0
M  V30 5255 C 494.632 0.94474 -2.10578 0
M  V30 5256 C 495.602 1.3192 -1.00927 0
M  V30 5257 O 496.787 1.41147 -1.28382 0
M  V30 5258 C 493.927 2.21982 -2.64231 0
M  V30 5259 C 493.04 1.90128 -3.87911 0
M  V30 5260 C 492.175 3.11975 -4.29936 0
M  V30 5261 C 491.214 2.75968 -5.46359 0
M  V30 5262 N 490.351 3.90459 -5.83512 0
M  V30 5263 H 495.191 0.485717 -2.94015 0
M  V30 5264 H 492.728 0.228143 -1.4532 0
M  V30 5265 H 494.686 2.96572 -2.9343 0
M  V30 5266 H 493.316 2.6549 -1.83616 0
M  V30 5267 H 492.368 1.05755 -3.65404 0
M  V30 5268 H 493.68 1.59613 -4.72573 0
M  V30 5269 H 492.834 3.9488 -4.60603 0
M  V30 5270 H 491.573 3.45657 -3.44053 0
M  V30 5271 H 490.578 1.91478 -5.1538 0
M  V30 5272 H 491.803 2.43497 -6.33945 0
M  V30 5273 H 489.749 4.23971 -5.00584 0
M  V30 5274 H 489.666 3.63588 -6.62827 0
M  V30 5275 H 490.934 4.7405 -6.18787 0
M  V30 5276 N 495.163 1.55791 0.238111 0
M  V30 5277 C 496.073 1.94196 1.31625 0
M  V30 5278 C 497.089 0.843545 1.52185 0
M  V30 5279 O 498.265 1.1457 1.65637 0
M  V30 5280 C 495.33 2.2365 2.64918 0
M  V30 5281 C 494.391 3.46971 2.52804 0
M  V30 5282 C 493.624 3.7501 3.79741 0
M  V30 5283 O 493.847 3.04982 4.82019 0
M  V30 5284 O 492.781 4.68525 3.77846 0
M  V30 5285 H 496.607 2.86044 1.02043 0
M  V30 5286 H 494.192 1.42786 0.439603 0
M  V30 5287 H 496.074 2.43863 3.4367 0
M  V30 5288 H 494.749 1.34979 2.94215 0
M  V30 5289 H 493.656 3.32055 1.72309 0
M  V30 5290 H 494.989 4.35971 2.28451 0
M  V30 5291 N 496.642 -0.504142 1.49319 0
M  V30 5292 C 497.552 -1.63248 1.68486 0
M  V30 5293 C 498.568 -1.64488 0.567432 0
M  V30 5294 O 499.744 -1.82966 0.841749 0
M  V30 5295 C 496.809 -2.99627 1.74426 0
M  V30 5296 C 495.87 -3.09039 2.97982 0
M  V30 5297 C 495.103 -4.38913 3.0363 0
M  V30 5298 O 495.326 -5.27528 2.16958 0
M  V30 5299 O 494.26 -4.53231 3.96062 0
M  V30 5300 H 498.086 -1.50008 2.64067 0
M  V30 5301 H 495.671 -0.680086 1.33023 0
M  V30 5302 H 497.553 -3.80689 1.80705 0
M  V30 5303 H 496.228 -3.13136 0.820233 0
M  V30 5304 H 495.135 -2.27177 2.97223 0
M  V30 5305 H 496.468 -3.00456 3.89855 0
M  V30 5306 N 498.12 -1.38341 -0.754957 0
M  V30 5307 C 499.368 -1.34208 -1.51105 0
M  V30 5308 C 499.689 0.0677634 -1.94882 0
M  V30 5309 O 498.959 1.01517 -1.67544 0
M  V30 5310 H 497.539 -0.493819 -0.560493 0
M  V30 5311 H 500.201 -1.73005 -0.897507 0
M  V30 5312 H 499.297 -1.99203 -2.4026 0
M  V30 5313 N 499.598 0.982988 -1.23187 0
M  V30 5314 C 500.823 1.76455 -1.08988 0
M  V30 5315 C 501.248 1.84726 0.354691 0
M  V30 5316 O 500.606 1.30699 1.25649 0
M  V30 5317 C 500.654 3.17094 -1.71708 0
M  V30 5318 O 499.758 4.00648 -0.977477 0
M  V30 5319 H 499.099 0.542988 -0.382177 0
M  V30 5320 H 501.629 1.23413 -1.63188 0
M  V30 5321 H 501.639 3.67684 -1.76841 0
M  V30 5322 H 500.314 3.10389 -2.76823 0
M  V30 5323 H 498.891 3.59161 -1.0029 0
M  V30 5324 N 501.076 1.04316 1.18135 0
M  V30 5325 C 502.301 0.768047 1.92655 0
M  V30 5326 C 502.726 -0.66904 1.758 0
M  V30 5327 O 502.084 -1.46372 1.06981 0
M  V30 5328 C 502.132 1.14239 3.42026 0
M  V30 5329 O 501.236 0.269333 4.1152 0
M  V30 5330 H 500.577 0.282436 0.600937 0
M  V30 5331 H 503.107 1.39367 1.49793 0
M  V30 5332 H 503.117 1.10538 3.92741 0
M  V30 5333 H 501.792 2.18928 3.53615 0
M  V30 5334 H 500.369 0.366175 3.71098 0
M  V30 5335 N 502.554 -1.34406 0.822964 0
M  V30 5336 C 503.802 -1.97892 0.410245 0
M  V30 5337 C 504.123 -1.65567 -1.03017 0
M  V30 5338 O 503.393 -0.94642 -1.71522 0
M  V30 5339 H 501.973 -0.732049 0.148707 0
M  V30 5340 H 504.635 -1.64043 1.05242 0
M  V30 5341 H 503.731 -3.07579 0.529284 0
M  V30 5342 N 504.032 -0.577932 -1.46621 0
M  V30 5343 C 505.257 -0.0652536 -2.07297 0
M  V30 5344 C 505.682 1.22828 -1.4246 0
M  V30 5345 O 505.04 1.74075 -0.506718 0
M  V30 5346 C 505.088 0.0920589 -3.60482 0
M  V30 5347 O 504.192 1.14972 -3.96049 0
M  V30 5348 H 503.533 -0.06065 -0.661224 0
M  V30 5349 H 506.063 -0.799515 -1.88332 0
M  V30 5350 H 506.073 0.299741 -4.06897 0
M  V30 5351 H 504.748 -0.852612 -4.07067 0
M  V30 5352 H 503.325 0.920879 -3.61351 0
M  V30 5353 N 505.51 1.54411 -0.315457 0
M  V30 5354 C 506.735 2.05299 0.294496 0
M  V30 5355 C 507.16 1.19052 1.4563 0
M  V30 5356 O 506.518 0.197804 1.80218 0
M  V30 5357 C 506.566 3.5345 0.714549 0
M  V30 5358 O 505.67 3.70175 1.81781 0
M  V30 5359 H 505.011 0.661743 0.0547019 0
M  V30 5360 H 507.541 1.99327 -0.461508 0
M  V30 5361 H 507.551 3.9557 0.999426 0
M  V30 5362 H 506.226 4.1568 -0.135244 0
M  V30 5363 H 504.803 3.3996 1.53236 0
M  V30 5364 N 506.988 0.0434614 1.5754 0
M  V30 5365 C 508.236 -0.630786 1.92004 0
M  V30 5366 C 508.557 -1.71836 0.921807 0
M  V30 5367 O 507.827 -1.9587 -0.034522 0
M  V30 5368 H 506.407 -0.235988 0.708745 0
M  V30 5369 H 509.069 0.0946462 1.9467 0
M  V30 5370 H 508.165 -1.07434 2.93026 0
M  V30 5371 N 508.466 -1.55915 -0.229846 0
M  V30 5372 C 509.882 -1.48721 -0.579166 0
M  V30 5373 C 510.082 -0.736976 -1.87539 0
M  V30 5374 O 509.138 -0.273258 -2.51017 0
M  V30 5375 C 510.451 -2.9323 -0.666082 0
M  V30 5376 C 511.999 -3.03701 -0.757267 0
M  V30 5377 C 512.474 -4.49552 -0.8756 0
M  V30 5378 N 513.965 -4.53561 -0.940035 0
M  V30 5379 C 514.7 -5.63683 -1.05116 0
M  V30 5380 N 514.196 -6.83576 -1.12675 0
M  V30 5381 N 515.989 -5.51516 -1.08565 0
M  V30 5382 H 508.14 -2.03123 0.620857 0
M  V30 5383 H 510.403 -0.922898 0.21671 0
M  V30 5384 H 510.109 -3.51032 0.21664 0
M  V30 5385 H 509.983 -3.44668 -1.53243 0
M  V30 5386 H 512.37 -2.45969 -1.63043 0
M  V30 5387 H 512.451 -2.55446 0.134583 0
M  V30 5388 H 512.095 -5.079 -0.00692351 0
M  V30 5389 H 512.025 -4.95506 -1.78274 0
M  V30 5390 H 514.516 -3.67215 -0.892269 0
M  V30 5391 H 514.829 -7.63251 -1.21109 0
M  V30 5392 H 513.174 -6.86303 -1.09603 0
M  V30 5393 H 516.365 -4.5678 -1.02319 0
M  V30 5394 H 516.538 -6.37372 -1.1688 0
M  V30 5395 N 509.944 0.496216 -1.49584 0
M  V30 5396 C 510.892 1.61805 -1.67098 0
M  V30 5397 C 511.886 1.60667 -0.536877 0
M  V30 5398 O 513.092 1.65118 -0.716654 0
M  V30 5399 H 509.467 0.53646 -0.526986 0
M  V30 5400 H 511.438 1.44187 -2.61252 0
M  V30 5401 C 510.187 2.99912 -1.75921 0
M  V30 5402 H 509.51 3.01496 -2.62565 0
M  V30 5403 H 510.95 3.77931 -1.92209 0
M  V30 5404 C 509.409 3.33092 -0.505088 0
M  V30 5405 O 509.939 4.00019 0.367085 0
M  V30 5406 N 508.145 2.88278 -0.366599 0
M  V30 5407 H 507.692 2.33989 -1.07735 0
M  V30 5408 H 507.65 3.10846 0.47142 0
M  V30 5409 N 511.423 1.38739 0.74761 0
M  V30 5410 C 512.834 1.31507 1.32524 0
M  V30 5411 C 513.185 -0.0263963 1.96182 0
M  V30 5412 O 512.31 -0.92849 1.95469 0
M  V30 5413 C 512.905 2.38162 2.40966 0
M  V30 5414 C 511.464 2.34489 2.94434 0
M  V30 5415 C 510.611 2.20712 1.67873 0
M  V30 5416 H 513.562 1.4901 0.546043 0
M  V30 5417 H 513.583 2.04222 3.21051 0
M  V30 5418 H 513.095 3.35783 1.94605 0
M  V30 5419 H 511.196 1.40467 3.45108 0
M  V30 5420 H 511.309 3.28861 3.48407 0
M  V30 5421 H 509.673 1.67667 1.91729 0
M  V30 5422 H 510.456 3.20285 1.23582 0
M  V30 5423 N 512.901 -0.976442 1.23707 0
M  V30 5424 C 513.833 -2.07212 0.979574 0
M  V30 5425 C 514.846 -1.6273 -0.0478528 0
M  V30 5426 O 516.035 -1.77506 0.18815 0
M  V30 5427 C 513.135 -3.35835 0.45479 0
M  V30 5428 C 512.308 -4.09268 1.54331 0
M  V30 5429 C 511.367 -5.16166 1.02271 0
M  V30 5430 O 510.393 -5.42827 1.71254 0
M  V30 5431 N 511.595 -5.80313 -0.147419 0
M  V30 5432 H 514.36 -2.29878 1.92292 0
M  V30 5433 H 511.921 -1.14343 1.14618 0
M  V30 5434 H 513.913 -4.04597 0.0914631 0
M  V30 5435 H 512.483 -3.10106 -0.394068 0
M  V30 5436 H 511.703 -3.34906 2.07923 0
M  V30 5437 H 512.991 -4.55095 2.27522 0
M  V30 5438 H 512.389 -5.61043 -0.724353 0
M  V30 5439 H 510.946 -6.50231 -0.451972 0
M  V30 5440 N 514.379 -1.04941 -1.1758 0
M  V30 5441 C 515.342 -0.652456 -2.19717 0
M  V30 5442 C 516.342 0.294745 -1.58076 0
M  V30 5443 O 517.532 0.0789579 -1.74021 0
M  V30 5444 C 514.664 0.0420712 -3.40874 0
M  V30 5445 H 515.857 -1.55642 -2.5635 0
M  V30 5446 H 513.41 -0.842995 -1.31618 0
M  V30 5447 H 514.145 0.95943 -3.09783 0
M  V30 5448 H 513.93 -0.638844 -3.86861 0
M  V30 5449 H 515.42 0.306 -4.16477 0
M  V30 5450 N 515.857 1.33968 -0.830081 0
M  V30 5451 C 517.082 2.02813 -0.433796 0
M  V30 5452 C 517.507 1.62076 0.954614 0
M  V30 5453 O 516.865 0.808955 1.62252 0
M  V30 5454 C 516.913 3.56348 -0.552115 0
M  V30 5455 O 516.017 4.10202 0.425191 0
M  V30 5456 H 515.358 0.639817 -0.177567 0
M  V30 5457 H 517.888 1.7106 -1.12248 0
M  V30 5458 H 517.898 4.05722 -0.430513 0
M  V30 5459 H 516.573 3.85344 -1.56471 0
M  V30 5460 H 515.15 3.71979 0.261878 0
M  V30 5461 N 517.335 0.585699 1.46312 0
M  V30 5462 C 518.265 -0.133556 2.33118 0
M  V30 5463 C 519.246 -0.880707 1.45525 0
M  V30 5464 O 520.431 -0.855579 1.74337 0
M  V30 5465 C 517.561 -1.14585 3.27853 0
M  V30 5466 C 516.515 -0.513341 4.2491 0
M  V30 5467 C 515.841 -1.63231 5.09175 0
M  V30 5468 C 517.141 0.551413 5.19381 0
M  V30 5469 H 518.835 0.59121 2.93505 0
M  V30 5470 H 516.381 0.285761 1.41136 0
M  V30 5471 H 518.334 -1.65741 3.87438 0
M  V30 5472 H 517.058 -1.90093 2.65579 0
M  V30 5473 H 515.717 -0.0228349 3.66593 0
M  V30 5474 H 515.365 -2.37713 4.43285 0
M  V30 5475 H 515.065 -1.21473 5.74907 0
M  V30 5476 H 516.589 -2.14658 5.71624 0
M  V30 5477 H 518.003 0.124804 5.73164 0
M  V30 5478 H 516.4 0.889486 5.93471 0
M  V30 5479 H 517.47 1.43655 4.63132 0
M  V30 5480 N 518.813 -1.54241 0.323641 0
M  V30 5481 C 520.06 -2.0057 -0.27891 0
M  V30 5482 C 520.388 -1.21181 -1.52136 0
M  V30 5483 O 519.643 -0.282043 -1.93657 0
M  V30 5484 C 519.942 -3.5129 -0.658031 0
M  V30 5485 C 519.608 -4.48281 0.485252 0
M  V30 5486 C 518.27 -4.74519 0.799055 0
M  V30 5487 C 520.622 -5.05909 1.25322 0
M  V30 5488 C 517.95 -5.55643 1.88354 0
M  V30 5489 C 520.302 -5.88215 2.32779 0
M  V30 5490 C 518.966 -6.12755 2.64741 0
M  V30 5491 H 518.236 -0.733938 -0.10206 0
M  V30 5492 H 520.883 -1.862 0.447435 0
M  V30 5493 H 519.188 -3.63388 -1.4648 0
M  V30 5494 H 520.885 -3.84578 -1.1358 0
M  V30 5495 H 517.475 -4.27979 0.230593 0
M  V30 5496 H 521.659 -4.8562 1.02404 0
M  V30 5497 H 516.915 -5.72888 2.13564 0
M  V30 5498 H 521.089 -6.31888 2.92729 0
M  V30 5499 H 518.716 -6.75404 3.48904 0
M  V30 5500 N 520.291 -0.0518155 -1.57515 0
M  V30 5501 C 521.539 0.620595 -1.92336 0
M  V30 5502 C 521.86 1.71345 -0.930907 0
M  V30 5503 O 521.13 1.95885 0.0241341 0
M  V30 5504 H 519.71 0.232226 -0.709986 0
M  V30 5505 H 522.372 -0.104969 -1.94617 0
M  V30 5506 H 521.468 1.05879 -2.93592 0
M  V30 5507 N 521.769 1.56035 0.221574 0
M  V30 5508 C 522.716 1.92413 1.27459 0
M  V30 5509 C 523.686 0.781323 1.46576 0
M  V30 5510 O 524.871 1.03721 1.60145 0
M  V30 5511 C 522.011 2.24617 2.61995 0
M  V30 5512 C 521.124 3.51831 2.50677 0
M  V30 5513 C 520.259 3.73482 3.77736 0
M  V30 5514 C 519.298 4.94211 3.6114 0
M  V30 5515 N 518.435 5.12252 4.80148 0
M  V30 5516 H 523.275 2.82203 0.957355 0
M  V30 5517 H 520.812 1.39676 0.461415 0
M  V30 5518 H 522.77 2.41298 3.40339 0
M  V30 5519 H 521.4 1.38 2.91815 0
M  V30 5520 H 520.452 3.43343 1.63767 0
M  V30 5521 H 521.764 4.40328 2.34334 0
M  V30 5522 H 520.918 3.9026 4.64523 0
M  V30 5523 H 519.657 2.83266 3.97003 0
M  V30 5524 H 518.662 4.77384 2.72736 0
M  V30 5525 H 519.887 5.85912 3.43343 0
M  V30 5526 H 517.833 4.24978 4.99729 0
M  V30 5527 H 517.75 5.94881 4.66532 0
M  V30 5528 H 519.018 5.33465 5.68362 0
M  V30 5529 N 523.247 -0.488276 1.49845 0
M  V30 5530 C 524.194 -1.58836 1.67451 0
M  V30 5531 C 525.164 -1.57886 0.515857 0
M  V30 5532 O 526.349 -1.75679 0.744403 0
M  V30 5533 C 523.489 -2.96915 1.75885 0
M  V30 5534 C 522.602 -3.07784 3.03138 0
M  V30 5535 C 521.737 -4.36673 3.02473 0
M  V30 5536 C 520.776 -4.41222 4.24252 0
M  V30 5537 N 519.913 -5.61557 4.21424 0
M  V30 5538 H 524.753 -1.43131 2.61376 0
M  V30 5539 H 522.29 -0.696186 1.29583 0
M  V30 5540 H 524.248 -3.76965 1.78755 0
M  V30 5541 H 522.878 -3.11295 0.85414 0
M  V30 5542 H 521.93 -2.20717 3.09819 0
M  V30 5543 H 523.242 -3.07005 3.93128 0
M  V30 5544 H 522.396 -5.25055 3.03977 0
M  V30 5545 H 521.135 -4.40037 2.10283 0
M  V30 5546 H 520.14 -3.5124 4.22978 0
M  V30 5547 H 521.365 -4.39564 5.17649 0
M  V30 5548 H 519.311 -5.65738 3.32078 0
M  V30 5549 H 519.228 -5.62447 5.05163 0
M  V30 5550 H 520.496 -6.52111 4.2705 0
M  V30 5551 N 524.725 -1.39134 -0.740242 0
M  V30 5552 C 525.688 -1.37217 -1.83587 0
M  V30 5553 C 526.688 -0.270221 -1.58513 0
M  V30 5554 O 527.878 -0.527843 -1.6601 0
M  V30 5555 C 525.01 -1.13959 -3.21288 0
M  V30 5556 H 526.203 -2.34705 -1.86691 0
M  V30 5557 H 523.756 -1.24622 -0.94335 0
M  V30 5558 H 524.491 -0.17131 -3.23847 0
M  V30 5559 H 524.276 -1.93754 -3.40884 0
M  V30 5560 H 525.766 -1.15346 -4.01354 0
M  V30 5561 N 526.204 0.969867 -1.24223 0
M  V30 5562 C 527.151 2.06407 -1.0327 0
M  V30 5563 C 528.121 1.66014 0.0533 0
M  V30 5564 O 529.306 1.90533 -0.100896 0
M  V30 5565 C 526.446 3.3909 -0.641262 0
M  V30 5566 C 525.559 3.9269 -1.80051 0
M  V30 5567 C 524.694 5.13631 -1.35486 0
M  V30 5568 C 523.733 5.59423 -2.48419 0
M  V30 5569 N 522.87 6.71586 -2.04737 0
M  V30 5570 H 527.71 2.23663 -1.96923 0
M  V30 5571 H 525.247 1.09624 -0.980862 0
M  V30 5572 H 527.205 4.15323 -0.395351 0
M  V30 5573 H 525.835 3.21765 0.258269 0
M  V30 5574 H 524.887 3.13116 -2.16014 0
M  V30 5575 H 526.199 4.22636 -2.64916 0
M  V30 5576 H 525.353 5.97231 -1.0677 0
M  V30 5577 H 524.092 4.85364 -0.476722 0
M  V30 5578 H 523.097 4.74398 -2.77897 0
M  V30 5579 H 524.322 5.89705 -3.36786 0
M  V30 5580 H 522.268 6.45058 -1.19318 0
M  V30 5581 H 522.185 7.0097 -2.83156 0
M  V30 5582 H 523.453 7.58633 -1.79154 0
M  V30 5583 N 527.682 1.05563 1.17022 0
M  V30 5584 C 528.645 0.664098 2.19368 0
M  V30 5585 C 529.645 -0.286358 1.5823 0
M  V30 5586 O 530.835 -0.069728 1.7406 0
M  V30 5587 C 527.967 -0.0239932 3.40892 0
M  V30 5588 H 529.16 1.57 2.55521 0
M  V30 5589 H 526.713 0.849964 1.31169 0
M  V30 5590 H 527.448 -0.942988 3.10287 0
M  V30 5591 H 527.233 0.659351 3.86516 0
M  V30 5592 H 528.723 -0.283909 4.16634 0
M  V30 5593 N 529.16 -1.33526 0.837174 0
M  V30 5594 C 530.11 -2.2672 0.241269 0
M  V30 5595 C 531.094 -1.49183 -0.602756 0
M  V30 5596 O 532.286 -1.71052 -0.455002 0
M  V30 5597 C 529.415 -3.38294 -0.584125 0
M  V30 5598 C 528.501 -4.23231 0.271315 0
M  V30 5599 N 528.892 -4.87473 1.34922 0
M  V30 5600 C 527.19 -4.45962 0.0580589 0
M  V30 5601 C 527.891 -5.50685 1.87405 0
M  V30 5602 N 526.867 -5.30732 1.17578 0
M  V30 5603 H 530.669 -2.73903 1.06558 0
M  V30 5604 H 528.183 -1.47411 0.68145 0
M  V30 5605 H 530.18 -4.04044 -1.02731 0
M  V30 5606 H 528.84 -2.9266 -1.40643 0
M  V30 5607 H 529.851 -4.88077 1.7321 0
M  V30 5608 H 526.528 -4.11052 -0.730938 0
M  V30 5609 H 527.918 -6.11845 2.77661 0
M  V30 5610 N 530.638 -0.59345 -1.46 0
M  V30 5611 C 531.585 0.133618 -2.30413 0
M  V30 5612 C 532.555 0.873736 -1.41262 0
M  V30 5613 O 533.74 0.862279 -1.70204 0
M  V30 5614 C 530.88 1.13434 -3.25924 0
M  V30 5615 C 529.993 0.39656 -4.30176 0
M  V30 5616 C 529.128 1.38575 -5.12806 0
M  V30 5617 C 528.167 0.634984 -6.08797 0
M  V30 5618 N 527.304 1.57276 -6.84258 0
M  V30 5619 H 532.144 -0.592252 -2.92055 0
M  V30 5620 H 529.681 -0.303874 -1.43927 0
M  V30 5621 H 531.639 1.72752 -3.79753 0
M  V30 5622 H 530.269 1.82779 -2.66067 0
M  V30 5623 H 529.321 -0.311861 -3.79119 0
M  V30 5624 H 530.633 -0.189869 -4.98438 0
M  V30 5625 H 529.787 2.05141 -5.70966 0
M  V30 5626 H 528.526 2.00611 -4.44529 0
M  V30 5627 H 527.531 -0.0443925 -5.49782 0
M  V30 5628 H 528.756 0.0198678 -6.79097 0
M  V30 5629 H 526.702 2.18103 -6.18682 0
M  V30 5630 H 526.619 1.03941 -7.48821 0
M  V30 5631 H 527.887 2.22844 -7.46968 0
M  V30 5632 N 532.116 1.54067 -0.331816 0
M  V30 5633 C 533.079 2.23275 0.517768 0
M  V30 5634 C 534.079 1.22897 1.03697 0
M  V30 5635 O 535.269 1.47419 0.928084 0
M  V30 5636 C 532.401 2.94326 1.72004 0
M  V30 5637 H 533.594 2.99773 -0.0873507 0
M  V30 5638 H 531.147 1.56079 -0.0830042 0
M  V30 5639 H 531.882 2.21986 2.36417 0
M  V30 5640 H 531.667 3.67941 1.35507 0
M  V30 5641 H 533.157 3.47031 2.32291 0
M  V30 5642 N 533.594 0.0601682 1.57485 0
M  V30 5643 C 534.84 -0.612501 1.93329 0
M  V30 5644 C 535.173 -1.6996 0.939526 0
M  V30 5645 O 534.448 -1.94472 -0.0330957 0
M  V30 5646 C 534.731 -1.20025 3.39508 0
M  V30 5647 C 534.584 -0.12059 4.49638 0
M  V30 5648 C 535.903 -2.10923 3.86264 0
M  V30 5649 H 533.022 -0.221185 0.703027 0
M  V30 5650 H 535.664 0.123768 1.89596 0
M  V30 5651 H 533.814 -1.82774 3.42821 0
M  V30 5652 H 535.486 0.51185 4.58452 0
M  V30 5653 H 533.729 0.550251 4.30296 0
M  V30 5654 H 534.4 -0.572019 5.49028 0
M  V30 5655 H 536.876 -1.58124 3.84884 0
M  V30 5656 H 535.752 -2.48987 4.8918 0
M  V30 5657 H 536.013 -3.01292 3.23536 0
M  V30 5658 N 535.072 -1.5615 -0.213296 0
M  V30 5659 C 536.32 -1.79191 -0.934612 0
M  V30 5660 C 536.641 -0.630112 -1.84539 0
M  V30 5661 O 535.911 0.35257 -1.92701 0
M  V30 5662 H 534.491 -0.660937 -0.348097 0
M  V30 5663 H 537.153 -1.93618 -0.22317 0
M  V30 5664 H 536.249 -2.71656 -1.53654 0
M  V30 5665 N 536.55 0.480323 -1.50102 0
M  V30 5666 C 537.482 1.59669 -1.64433 0
M  V30 5667 C 538.495 1.54063 -0.52615 0
M  V30 5668 O 539.684 1.59619 -0.798992 0
M  V30 5669 C 536.784 2.98527 -1.6042 0
M  V30 5670 C 535.957 3.291 -2.88117 0
M  V30 5671 C 535.016 4.47468 -2.76873 0
M  V30 5672 O 534.042 4.4823 -3.50825 0
M  V30 5673 N 535.244 5.48593 -1.89806 0
M  V30 5674 H 538.009 1.47795 -2.60723 0
M  V30 5675 H 535.57 0.66858 -1.4745 0
M  V30 5676 H 537.562 3.75666 -1.50523 0
M  V30 5677 H 536.132 3.04218 -0.719036 0
M  V30 5678 H 535.352 2.40662 -3.12211 0
M  V30 5679 H 536.64 3.46334 -3.72734 0
M  V30 5680 H 536.038 5.50791 -1.2902 0
M  V30 5681 H 534.595 6.24752 -1.85819 0
M  V30 5682 N 538.028 1.39524 0.732853 0
M  V30 5683 C 539.439 1.32905 1.31122 0
M  V30 5684 C 539.79 -0.00558708 1.96199 0
M  V30 5685 O 538.915 -0.907706 1.96443 0
M  V30 5686 C 539.51 2.40704 2.38426 0
M  V30 5687 C 538.069 2.37599 2.91931 0
M  V30 5688 C 537.216 2.2248 1.65523 0
M  V30 5689 H 540.167 1.49581 0.530207 0
M  V30 5690 H 540.188 2.07616 3.18867 0
M  V30 5691 H 539.7 3.37829 1.91033 0
M  V30 5692 H 537.801 1.44119 3.43599 0
M  V30 5693 H 537.914 3.32538 3.44899 0
M  V30 5694 H 536.278 1.69691 1.8994 0
M  V30 5695 H 537.061 3.21577 1.20178 0
M  V30 5696 N 539.506 -0.963266 1.24736 0
M  V30 5697 C 540.469 -2.04013 1.04457 0
M  V30 5698 C 541.469 -1.608 0.000335555 0
M  V30 5699 O 542.659 -1.72515 0.241719 0
M  V30 5700 C 539.791 -3.35858 0.584162 0
M  V30 5701 H 540.984 -2.23436 2.00041 0
M  V30 5702 H 538.537 -1.13914 1.07021 0
M  V30 5703 H 539.272 -3.22128 -0.374673 0
M  V30 5704 H 539.057 -3.68568 1.3379 0
M  V30 5705 H 540.547 -4.1502 0.463451 0
M  V30 5706 N 540.985 -1.06182 -1.16461 0
M  V30 5707 C 542.262 -0.691364 -1.82974 0
M  V30 5708 C 542.642 0.827377 -1.9421 0
M  V30 5709 O 541.99 1.73723 -1.48434 0
M  V30 5710 C 542.2 -1.39199 -3.20038 0
M  V30 5711 C 543.548 -1.53647 -3.95825 0
M  V30 5712 O 544.572 -1.35181 -3.29552 0
M  V30 5713 O 543.431 -1.83932 -5.14618 0
M  V30 5714 H 540.525 -0.244605 -0.789998 0
M  V30 5715 H 543.071 -1.16203 -1.23673 0
M  V30 5716 H 541.843 -2.42766 -3.06888 0
M  V30 5717 H 541.466 -0.911335 -3.87015 0
M  V30 5718 N 542.463 1.3308 -0.844243 0
M  V30 5719 C 543.879 1.50447 -0.532729 0
M  V30 5720 C 544.079 1.78292 0.938837 0
M  V30 5721 O 543.135 1.84635 1.72239 0
M  V30 5722 C 544.448 2.65555 -1.41072 0
M  V30 5723 C 545.996 2.7944 -1.41005 0
M  V30 5724 C 546.471 3.97616 -2.27301 0
M  V30 5725 N 547.962 4.0486 -2.2504 0
M  V30 5726 C 548.697 4.95508 -2.88547 0
M  V30 5727 N 548.193 5.91236 -3.61126 0
M  V30 5728 N 549.986 4.88548 -2.77989 0
M  V30 5729 H 542.137 1.13269 -1.79677 0
M  V30 5730 H 544.4 0.55734 -0.766861 0
M  V30 5731 H 544.106 2.51675 -2.45668 0
M  V30 5732 H 543.98 3.61089 -1.09061 0
M  V30 5733 H 546.367 2.92749 -0.371784 0
M  V30 5734 H 546.448 1.8465 -1.77026 0
M  V30 5735 H 546.092 3.85066 -3.3119 0
M  V30 5736 H 546.022 4.91661 -1.88619 0
M  V30 5737 H 548.513 3.36353 -1.72264 0
M  V30 5738 H 548.826 6.57079 -4.06776 0
M  V30 5739 H 547.171 5.91295 -3.65234 0
M  V30 5740 H 550.362 4.12729 -2.20846 0
M  V30 5741 H 550.535 5.58994 -3.27765 0
M  V30 5742 N 543.941 0.601185 1.45683 0
M  V30 5743 C 545.352 0.179659 1.85834 0
M  V30 5744 C 545.703 -1.26189 1.50236 0
M  V30 5745 O 544.828 -1.95587 0.925987 0
M  V30 5746 C 545.423 0.319277 3.37292 0
M  V30 5747 C 543.982 -0.0475092 3.7637 0
M  V30 5748 C 543.129 0.646692 2.69654 0
M  V30 5749 H 546.08 0.808268 1.36575 0
M  V30 5750 H 546.101 -0.4503 3.77826 0
M  V30 5751 H 545.613 1.36855 3.6317 0
M  V30 5752 H 543.714 -1.0962 3.5611 0
M  V30 5753 H 543.827 0.34168 4.7788 0
M  V30 5754 H 542.191 0.0849971 2.54558 0
M  V30 5755 H 542.974 1.69797 2.98369 0
M  V30 5756 N 545.419 -1.53889 0.339982 0
M  V30 5757 C 546.835 -1.59595 -0.0120752 0
M  V30 5758 C 547.035 -1.35605 -1.49042 0
M  V30 5759 O 546.091 -1.14856 -2.24865 0
M  V30 5760 C 547.404 -2.9774 0.420898 0
M  V30 5761 C 548.952 -3.1077 0.37294 0
M  V30 5762 C 549.427 -4.51286 0.781327 0
M  V30 5763 N 550.918 -4.57325 0.735374 0
M  V30 5764 C 551.653 -5.64194 1.02336 0
M  V30 5765 N 551.149 -6.7893 1.37933 0
M  V30 5766 N 552.942 -5.54051 0.947838 0
M  V30 5767 H 545.093 -1.67738 1.30299 0
M  V30 5768 H 547.356 -0.785385 0.530918 0
M  V30 5769 H 547.062 -3.20349 1.45152 0
M  V30 5770 H 546.936 -3.76639 -0.205721 0
M  V30 5771 H 549.323 -2.87886 -0.648505 0
M  V30 5772 H 549.404 -2.33939 1.03472 0
M  V30 5773 H 549.048 -4.74905 1.80077 0
M  V30 5774 H 548.978 -5.26511 0.0970679 0
M  V30 5775 H 551.469 -3.74931 0.472773 0
M  V30 5776 H 551.782 -7.56392 1.58402 0
M  V30 5777 H 550.127 -6.80386 1.41774 0
M  V30 5778 H 553.318 -4.63293 0.669115 0
M  V30 5779 H 553.491 -6.37246 1.17563 0
M  V30 5780 N 546.897 -0.0685191 -1.57451 0
M  V30 5781 C 547.807 0.914677 -2.16034 0
M  V30 5782 C 548.823 1.32938 -1.12265 0
M  V30 5783 O 549.999 1.40275 -1.44516 0
M  V30 5784 C 547.064 2.16519 -2.70777 0
M  V30 5785 C 546.125 1.80721 -3.89408 0
M  V30 5786 C 545.358 2.9981 -4.41531 0
M  V30 5787 O 545.581 4.13727 -3.92666 0
M  V30 5788 O 544.515 2.79817 -5.32903 0
M  V30 5789 H 548.341 0.446364 -3.00402 0
M  V30 5790 H 545.926 0.154367 -1.486 0
M  V30 5791 H 547.808 2.89856 -3.05878 0
M  V30 5792 H 546.483 2.62454 -1.89471 0
M  V30 5793 H 545.39 1.04646 -3.59166 0
M  V30 5794 H 546.723 1.39571 -4.71997 0
M  V30 5795 N 548.375 1.56261 0.205012 0
M  V30 5796 C 549.786 1.70056 0.770574 0
M  V30 5797 C 550.137 0.673398 1.84282 0
M  V30 5798 O 549.262 -0.172196 2.15714 0
M  V30 5799 C 549.857 3.08316 1.40451 0
M  V30 5800 C 548.416 3.2391 1.91727 0
M  V30 5801 C 547.563 2.66001 0.783516 0
M  V30 5802 H 550.514 1.58688 -0.019911 0
M  V30 5803 H 550.535 3.05094 2.27371 0
M  V30 5804 H 550.047 3.83053 0.623882 0
M  V30 5805 H 548.148 2.54072 2.7254 0
M  V30 5806 H 548.261 4.3131 2.08588 0
M  V30 5807 H 546.625 2.24915 1.19521 0
M  V30 5808 H 547.408 3.43297 0.0152883 0
M  V30 5809 N 549.853 -0.472356 1.50355 0
M  V30 5810 C 550.783 -1.57859 1.72055 0
M  V30 5811 C 551.764 -1.60283 0.569505 0
M  V30 5812 O 552.949 -1.7657 0.808503 0
M  V30 5813 C 550.079 -2.96191 1.81351 0
M  V30 5814 C 549.033 -3.08633 2.96529 0
M  V30 5815 C 548.359 -4.486 2.90968 0
M  V30 5816 C 549.659 -2.85969 4.37057 0
M  V30 5817 H 551.353 -1.39953 2.64676 0
M  V30 5818 H 548.899 -0.671846 1.27367 0
M  V30 5819 H 550.852 -3.73507 1.95117 0
M  V30 5820 H 549.576 -3.15251 0.853502 0
M  V30 5821 H 548.235 -2.33749 2.82413 0
M  V30 5822 H 547.883 -4.64577 1.92815 0
M  V30 5823 H 547.583 -4.57861 3.68289 0
M  V30 5824 H 549.107 -5.27938 3.0678 0
M  V30 5825 H 550.521 -3.53036 4.51706 0
M  V30 5826 H 548.918 -3.06677 5.15819 0
M  V30 5827 H 549.988 -1.81838 4.49514 0
M  V30 5828 N 551.331 -1.39911 -0.725443 0
M  V30 5829 C 552.577 -1.38862 -1.48624 0
M  V30 5830 C 552.932 0.0125913 -1.92396 0
M  V30 5831 O 552.225 0.981046 -1.64578 0
M  V30 5832 C 552.419 -2.30368 -2.7325 0
M  V30 5833 C 552.248 -3.79247 -2.41665 0
M  V30 5834 C 551.018 -4.48119 -2.3349 0
M  V30 5835 C 553.216 -4.70988 -2.06579 0
M  V30 5836 N 551.198 -5.82282 -1.94476 0
M  V30 5837 C 552.569 -5.93873 -1.78087 0
M  V30 5838 C 554.624 -4.58917 -1.9313 0
M  V30 5839 C 553.327 -7.06036 -1.37499 0
M  V30 5840 C 555.353 -5.71012 -1.53946 0
M  V30 5841 C 554.715 -6.92976 -1.26345 0
M  V30 5842 H 550.814 -0.563394 -0.54232 0
M  V30 5843 H 553.398 -1.75542 -0.842213 0
M  V30 5844 H 551.569 -1.95831 -3.35417 0
M  V30 5845 H 553.301 -2.20245 -3.39521 0
M  V30 5846 H 550.056 -4.01677 -2.50904 0
M  V30 5847 H 550.48 -6.53307 -1.77535 0
M  V30 5848 H 555.122 -3.65149 -2.13134 0
M  V30 5849 H 552.84 -7.99697 -1.16237 0
M  V30 5850 H 556.426 -5.63664 -1.44132 0
M  V30 5851 H 555.306 -7.78243 -0.964787 0
M  V30 5852 N 552.809 0.956637 -1.25245 0
M  V30 5853 C 553.772 2.03457 -1.05537 0
M  V30 5854 C 554.772 1.60798 -0.00886317 0
M  V30 5855 O 555.962 1.72384 -0.250865 0
M  V30 5856 C 553.094 3.35543 -0.601965 0
M  V30 5857 H 554.287 2.22372 -2.01223 0
M  V30 5858 H 551.84 1.13344 -1.07623 0
M  V30 5859 H 552.575 3.22323 0.357584 0
M  V30 5860 H 552.36 3.67854 -1.35743 0
M  V30 5861 H 553.85 4.14769 -0.485454 0
M  V30 5862 N 554.287 1.06798 1.15896 0
M  V30 5863 C 555.517 0.807522 1.90165 0
M  V30 5864 C 555.925 -0.642417 1.7796 0
M  V30 5865 O 555.268 -1.45193 1.12537 0
M  V30 5866 C 555.33 1.12939 3.41299 0
M  V30 5867 C 554.994 2.57879 3.7729 0
M  V30 5868 C 555.991 3.56118 3.78782 0
M  V30 5869 C 553.676 2.93311 4.07767 0
M  V30 5870 C 555.67 4.87827 4.10248 0
M  V30 5871 C 553.357 4.25219 4.38899 0
M  V30 5872 C 554.355 5.22287 4.4012 0
M  V30 5873 O 554.043 6.51826 4.70508 0
M  V30 5874 H 553.775 0.291946 0.609708 0
M  V30 5875 H 556.329 1.42627 1.47806 0
M  V30 5876 H 554.559 0.45359 3.84031 0
M  V30 5877 H 556.248 0.852363 3.9685 0
M  V30 5878 H 557.014 3.30086 3.55342 0
M  V30 5879 H 552.893 2.18409 4.05979 0
M  V30 5880 H 556.437 5.63586 4.11116 0
M  V30 5881 H 552.334 4.51006 4.61805 0
M  V30 5882 H 553.102 6.56893 4.88298 0
M  V30 5883 N 555.766 -1.3263 0.851289 0
M  V30 5884 C 557.013 -1.97368 0.453023 0
M  V30 5885 C 557.341 -1.67384 -0.990596 0
M  V30 5886 O 556.596 -0.952665 -1.70947 0
M  V30 5887 C 556.895 -3.51713 0.635015 0
M  V30 5888 C 556.561 -4.01676 2.04859 0
M  V30 5889 C 555.223 -4.15031 2.43522 0
M  V30 5890 C 557.575 -4.28206 2.97135 0
M  V30 5891 C 554.903 -4.52257 3.73739 0
M  V30 5892 C 557.255 -4.66889 4.26846 0
M  V30 5893 C 555.919 -4.7845 4.65448 0
M  V30 5894 H 555.189 -0.722219 0.165773 0
M  V30 5895 H 557.836 -1.58092 1.0807 0
M  V30 5896 H 556.141 -3.91726 -0.0759081 0
M  V30 5897 H 557.838 -3.99823 0.306964 0
M  V30 5898 H 554.428 -3.91764 1.73836 0
M  V30 5899 H 558.612 -4.174 2.68498 0
M  V30 5900 H 553.868 -4.59402 4.03435 0
M  V30 5901 H 558.042 -4.86372 4.98413 0
M  V30 5902 H 555.669 -5.07052 5.66395 0
M  V30 5903 N 557.244 -0.608902 -1.45362 0
M  V30 5904 C 558.484 -0.10763 -2.04116 0
M  V30 5905 C 558.848 1.23883 -1.46686 0
M  V30 5906 O 560.049 1.83091 -1.96803 0
M  V30 5907 C 558.32 -0.0703351 -3.57331 0
M  V30 5908 S 559.879 0.369554 -4.37241 0
M  V30 5909 H 556.697 -0.0502123 -0.709225 0
M  V30 5910 H 559.299 -0.8073 -1.78053 0
M  V30 5911 H 558.003 -1.05379 -3.9664 0
M  V30 5912 H 557.534 0.651287 -3.87971 0
M  V30 5913 H 559.549 1.61878 -4.69052 0
M  V30 5914 N 558.722 1.53707 -0.348139 0
M  V30 5915 C 559.999 1.93247 0.302475 0
M  V30 5916 C 560.379 1.28012 1.67857 0
M  V30 5917 O 559.727 0.43274 2.24365 0
M  V30 5918 C 559.937 3.47031 0.370159 0
M  V30 5919 C 561.285 4.20066 0.61882 0
M  V30 5920 O 562.309 3.53319 0.452087 0
M  V30 5921 O 561.168 5.38318 0.94215 0
M  V30 5922 H 558.262 0.807736 0.177458 0
M  V30 5923 H 560.808 1.64927 -0.399651 0
M  V30 5924 H 559.58 3.86745 -0.59534 0
M  V30 5925 H 559.203 3.81532 1.11888 0
M  V30 5926 N 560.2 0.0768682 1.57412 0
M  V30 5927 C 561.447 -0.591085 1.93681 0
M  V30 5928 C 561.775 -1.69311 0.957286 0
M  V30 5929 O 561.03 -1.95682 -0.0262428 0
M  V30 5930 C 561.329 -1.20268 3.36557 0
M  V30 5931 C 560.995 -0.226286 4.50332 0
M  V30 5932 C 559.657 0.0423142 4.81181 0
M  V30 5933 C 562.009 0.441415 5.19327 0
M  V30 5934 C 559.337 0.985616 5.78362 0
M  V30 5935 C 561.689 1.37307 6.17519 0
M  V30 5936 C 560.353 1.65009 6.46783 0
M  V30 5937 H 559.623 -0.216293 0.70873 0
M  V30 5938 H 562.27 0.148824 1.90921 0
M  V30 5939 H 560.575 -2.01844 3.35807 0
M  V30 5940 H 562.272 -1.72688 3.61911 0
M  V30 5941 H 558.862 -0.445821 4.26275 0
M  V30 5942 H 563.046 0.247023 4.95685 0
M  V30 5943 H 558.302 1.20743 5.99359 0
M  V30 5944 H 562.476 1.89637 6.70083 0
M  V30 5945 H 560.103 2.38263 7.21897 0
M  V30 5946 N 561.678 -1.56367 -0.196722 0
M  V30 5947 C 563.094 -1.49916 -0.54749 0
M  V30 5948 C 563.294 -0.77659 -1.85934 0
M  V30 5949 O 562.35 -0.32644 -2.50381 0
M  V30 5950 C 563.663 -2.94577 -0.603734 0
M  V30 5951 C 565.211 -3.05239 -0.692677 0
M  V30 5952 C 565.686 -4.51308 -0.780046 0
M  V30 5953 N 567.177 -4.55453 -0.843616 0
M  V30 5954 C 567.912 -5.65786 -0.931358 0
M  V30 5955 N 567.408 -6.85812 -0.981503 0
M  V30 5956 N 569.201 -5.53695 -0.968421 0
M  V30 5957 H 561.352 -2.01761 0.663803 0
M  V30 5958 H 563.615 -0.918094 0.236238 0
M  V30 5959 H 563.321 -3.50494 0.29105 0
M  V30 5960 H 563.195 -3.47841 -1.45898 0
M  V30 5961 H 565.582 -2.49372 -1.57789 0
M  V30 5962 H 565.663 -2.55103 0.188736 0
M  V30 5963 H 565.307 -5.078 0.100811 0
M  V30 5964 H 565.237 -4.99176 -1.67724 0
M  V30 5965 H 567.728 -3.69025 -0.814176 0
M  V30 5966 H 568.041 -7.65648 -1.04892 0
M  V30 5967 H 566.386 -6.88474 -0.950208 0
M  V30 5968 H 569.577 -4.58848 -0.926072 0
M  V30 5969 H 569.75 -6.39708 -1.03334 0
M  V30 5970 N 563.156 0.464375 -1.50603 0
M  V30 5971 C 564.433 1.22549 -1.5245 0
M  V30 5972 C 564.813 2.09327 -0.273035 0
M  V30 5973 O 564.161 2.16074 0.743242 0
M  V30 5974 C 564.371 2.05074 -2.82393 0
M  V30 5975 C 565.719 2.63036 -3.33313 0
M  V30 5976 O 566.743 2.1531 -2.8376 0
M  V30 5977 O 565.602 3.5001 -4.19709 0
M  V30 5978 H 562.696 0.556471 -0.611775 0
M  V30 5979 H 565.242 0.475648 -1.62898 0
M  V30 5980 H 564.014 1.41169 -3.64948 0
M  V30 5981 H 563.637 2.87179 -2.7498 0
M  V30 5982 N 564.634 1.40294 0.718013 0
M  V30 5983 C 565.883 1.37746 1.4734 0
M  V30 5984 C 566.196 -0.0180754 1.95592 0
M  V30 5985 O 567.402 -0.166166 2.70991 0
M  V30 5986 C 565.858 2.4208 2.66318 0
M  V30 5987 C 565.466 3.87432 2.24945 0
M  V30 5988 C 567.21 2.48635 3.44065 0
M  V30 5989 C 565.117 4.83368 3.40748 0
M  V30 5990 H 564.047 0.512165 0.553356 0
M  V30 5991 H 566.698 1.66019 0.781661 0
M  V30 5992 H 565.08 2.06903 3.3765 0
M  V30 5993 H 566.254 4.3174 1.6105 0
M  V30 5994 H 564.569 3.8433 1.60249 0
M  V30 5995 H 567.166 3.17499 4.30231 0
M  V30 5996 H 567.509 1.51611 3.87711 0
M  V30 5997 H 568.042 2.82791 2.79775 0
M  V30 5998 H 564.781 5.81716 3.02136 0
M  V30 5999 H 564.301 4.43726 4.03568 0
M  V30 6000 H 565.98 5.03074 4.06848 0
M  V30 6001 N 566.112 -0.949982 1.2575 0
M  V30 6002 C 567.34 -1.72972 1.13527 0
M  V30 6003 C 567.755 -1.8623 -0.310453 0
M  V30 6004 O 567.112 -1.36336 -1.2132 0
M  V30 6005 C 567.163 -3.14108 1.78936 0
M  V30 6006 O 566.884 -3.01493 3.17858 0
M  V30 6007 C 568.385 -4.08338 1.72554 0
M  V30 6008 H 565.605 -0.541864 0.395758 0
M  V30 6009 H 568.149 -1.19151 1.66202 0
M  V30 6010 H 566.304 -3.64858 1.30221 0
M  V30 6011 H 566.718 -3.90559 3.50092 0
M  V30 6012 H 568.192 -5.04963 2.22973 0
M  V30 6013 H 568.669 -4.33742 0.690251 0
M  V30 6014 H 569.275 -3.63506 2.2078 0
M  V30 6015 N 567.59 -1.07411 -1.15328 0
M  V30 6016 C 568.54 -0.664788 -2.18093 0
M  V30 6017 C 569.524 0.310395 -1.57878 0
M  V30 6018 O 570.716 0.124026 -1.76565 0
M  V30 6019 C 567.845 -0.0647822 -3.43239 0
M  V30 6020 C 566.931 -1.06514 -4.10506 0
M  V30 6021 N 567.322 -2.24491 -4.53252 0
M  V30 6022 C 565.62 -0.898613 -4.36853 0
M  V30 6023 C 566.321 -2.8796 -5.05424 0
M  V30 6024 N 565.297 -2.15622 -4.99007 0
M  V30 6025 H 569.099 -1.56333 -2.48872 0
M  V30 6026 H 566.613 -0.947393 -1.31902 0
M  V30 6027 H 568.61 0.246363 -4.16171 0
M  V30 6028 H 567.27 0.828866 -3.13943 0
M  V30 6029 H 568.281 -2.62205 -4.46619 0
M  V30 6030 H 564.958 -0.0579118 -4.1746 0
M  V30 6031 H 566.348 -3.88137 -5.48452 0
M  V30 6032 N 569.068 1.32177 -0.85831 0
M  V30 6033 C 570.314 1.97417 -0.46417 0
M  V30 6034 C 570.647 1.67746 0.978514 0
M  V30 6035 O 569.922 0.967654 1.68721 0
M  V30 6036 C 570.205 3.53069 -0.708094 0
M  V30 6037 C 570.058 3.92357 -2.19946 0
M  V30 6038 C 571.377 4.39783 -0.166881 0
M  V30 6039 H 568.496 0.717097 -0.17012 0
M  V30 6040 H 571.138 1.56499 -1.07741 0
M  V30 6041 H 569.288 3.88054 -0.186128 0
M  V30 6042 H 570.96 3.67533 -2.78779 0
M  V30 6043 H 569.203 3.41384 -2.67656 0
M  V30 6044 H 569.874 5.00841 -2.32082 0
M  V30 6045 H 572.35 4.11556 -0.613285 0
M  V30 6046 H 571.226 5.47671 -0.367093 0
M  V30 6047 H 571.487 4.32196 0.930559 0
M  V30 6048 N 570.547 0.616602 1.45037 0
M  V30 6049 C 571.793 0.115501 2.02471 0
M  V30 6050 C 572.126 -1.25406 1.4828 0
M  V30 6051 O 571.401 -1.82922 0.661051 0
M  V30 6052 C 571.684 0.0863588 3.59996 0
M  V30 6053 C 571.537 1.48723 4.24501 0
M  V30 6054 C 572.856 -0.596762 4.36035 0
M  V30 6055 H 569.975 0.0434461 0.735718 0
M  V30 6056 H 572.617 0.7903 1.72784 0
M  V30 6057 H 570.767 -0.488277 3.85419 0
M  V30 6058 H 572.439 2.10964 4.10234 0
M  V30 6059 H 570.682 2.04534 3.82555 0
M  V30 6060 H 571.353 1.419 5.3345 0
M  V30 6061 H 573.829 -0.10824 4.15959 0
M  V30 6062 H 572.705 -0.586289 5.4576 0
M  V30 6063 H 572.966 -1.66451 4.09569 0
M  V30 6064 N 572.025 -1.5352 0.356285 0
M  V30 6065 C 572.955 -2.28372 -0.486661 0
M  V30 6066 C 573.936 -1.30432 -1.09185 0
M  V30 6067 O 575.121 -1.59291 -1.11085 0
M  V30 6068 C 572.251 -3.06604 -1.63129 0
M  V30 6069 C 571.205 -4.12154 -1.15381 0
M  V30 6070 C 570.531 -4.78415 -2.38796 0
M  V30 6071 C 571.831 -5.21724 -0.245179 0
M  V30 6072 H 573.525 -2.99083 0.137797 0
M  V30 6073 H 571.071 -1.43841 0.0677134 0
M  V30 6074 H 573.024 -3.57712 -2.22755 0
M  V30 6075 H 571.748 -2.33568 -2.28284 0
M  V30 6076 H 570.407 -3.61978 -0.580294 0
M  V30 6077 H 570.055 -4.01959 -3.02387 0
M  V30 6078 H 569.755 -5.49734 -2.07524 0
M  V30 6079 H 571.279 -5.32313 -2.99125 0
M  V30 6080 H 572.693 -5.68391 -0.748646 0
M  V30 6081 H 571.09 -6.00095 -0.0237608 0
M  V30 6082 H 572.16 -4.79596 0.715229 0
M  V30 6083 N 573.503 -0.0852151 -1.57369 0
M  V30 6084 C 574.45 0.877268 -2.13478 0
M  V30 6085 C 575.42 1.28642 -1.05073 0
M  V30 6086 O 576.605 1.36992 -1.32808 0
M  V30 6087 C 573.745 2.13464 -2.71159 0
M  V30 6088 C 572.858 1.77691 -3.93764 0
M  V30 6089 C 571.993 2.98139 -4.39643 0
M  V30 6090 C 571.032 2.58447 -5.54862 0
M  V30 6091 N 570.169 3.71698 -5.95639 0
M  V30 6092 H 575.009 0.391933 -2.95411 0
M  V30 6093 H 572.546 0.181796 -1.45972 0
M  V30 6094 H 574.504 2.87086 -3.02717 0
M  V30 6095 H 573.134 2.59514 -1.91969 0
M  V30 6096 H 572.186 0.940768 -3.68583 0
M  V30 6097 H 573.498 1.44497 -4.77412 0
M  V30 6098 H 572.652 3.80026 -4.72933 0
M  V30 6099 H 571.391 3.34536 -3.54876 0
M  V30 6100 H 570.396 1.74984 -5.21211 0
M  V30 6101 H 571.621 2.23205 -6.41371 0
M  V30 6102 H 569.567 4.07831 -5.13819 0
M  V30 6103 H 569.484 3.42317 -6.74059 0
M  V30 6104 H 570.752 4.54123 -6.33555 0
M  V30 6105 N 574.981 1.5647 0.188427 0
M  V30 6106 C 575.891 1.98285 1.2538 0
M  V30 6107 C 576.907 0.891535 1.49424 0
M  V30 6108 O 578.083 1.19782 1.61908 0
M  V30 6109 C 575.148 2.31965 2.57669 0
M  V30 6110 C 574.209 3.54838 2.41638 0
M  V30 6111 C 573.442 3.86901 3.67618 0
M  V30 6112 O 573.665 3.20163 4.72072 0
M  V30 6113 O 572.599 4.80309 3.62749 0
M  V30 6114 H 576.425 2.89145 0.928912 0
M  V30 6115 H 574.01 1.44112 0.393955 0
M  V30 6116 H 575.892 2.54673 3.35737 0
M  V30 6117 H 574.567 1.44271 2.89771 0
M  V30 6118 H 573.474 3.37369 1.61658 0
M  V30 6119 H 574.807 4.43019 2.14465 0
M  V30 6120 N 576.459 -0.456382 1.50847 0
M  V30 6121 C 577.409 -1.55045 1.67168 0
M  V30 6122 C 578.393 -1.52061 0.525958 0
M  V30 6123 O 579.585 -1.58836 0.781036 0
M  V30 6124 C 576.714 -2.93386 1.78268 0
M  V30 6125 C 575.8 -3.01198 2.98564 0
M  V30 6126 N 576.191 -2.78792 4.22029 0
M  V30 6127 C 574.489 -3.32346 2.97426 0
M  V30 6128 C 575.19 -2.91953 5.03128 0
M  V30 6129 N 574.166 -3.22797 4.37382 0
M  V30 6130 H 577.968 -1.36444 2.60308 0
M  V30 6131 H 575.482 -0.663375 1.48233 0
M  V30 6132 H 577.479 -3.72071 1.88067 0
M  V30 6133 H 576.139 -3.13022 0.862965 0
M  V30 6134 H 577.15 -2.54087 4.51287 0
M  V30 6135 H 573.827 -3.57877 2.15012 0
M  V30 6136 H 575.217 -2.78745 6.11351 0
M  V30 6137 N 577.937 -1.40673 -0.710563 0
M  V30 6138 C 579.177 -1.40677 -1.48288 0
M  V30 6139 C 579.541 -0.0097193 -1.91998 0
M  V30 6140 O 580.742 0.115381 -2.68552 0
M  V30 6141 C 579.013 -2.37289 -2.67262 0
M  V30 6142 S 580.572 -2.55694 -3.56603 0
M  V30 6143 H 577.39 -0.498545 -0.506926 0
M  V30 6144 H 579.992 -1.76984 -0.830472 0
M  V30 6145 H 578.696 -3.37617 -2.3333 0
M  V30 6146 H 578.227 -2.02282 -3.3741 0
M  V30 6147 H 580.242 -1.81311 -4.61888 0
M  V30 6148 N 579.415 0.9433 -1.26252 0
M  V30 6149 C 580.661 1.69175 -1.11837 0
M  V30 6150 C 580.994 1.91238 0.337891 0
M  V30 6151 O 580.269 1.49152 1.24836 0
M  V30 6152 C 580.552 3.06783 -1.88563 0
M  V30 6153 C 580.405 2.9206 -3.42083 0
M  V30 6154 C 581.724 4.06865 -1.67776 0
M  V30 6155 H 578.843 0.61399 -0.407658 0
M  V30 6156 H 581.485 1.09572 -1.55222 0
M  V30 6157 H 579.635 3.57663 -1.51689 0
M  V30 6158 H 581.307 2.48419 -3.88698 0
M  V30 6159 H 579.55 2.27731 -3.69217 0
M  V30 6160 H 580.221 3.89651 -3.90994 0
M  V30 6161 H 582.697 3.64939 -1.99897 0
M  V30 6162 H 581.573 5.01168 -2.23879 0
M  V30 6163 H 581.834 4.37705 -0.621816 0
M  V30 6164 N 580.893 1.08022 1.14757 0
M  V30 6165 C 582.118 0.82895 1.90114 0
M  V30 6166 C 582.543 -0.612772 1.77839 0
M  V30 6167 O 581.901 -1.42895 1.11583 0
M  V30 6168 C 581.949 1.25062 3.38219 0
M  V30 6169 O 581.053 0.400119 4.10454 0
M  V30 6170 H 580.394 0.301412 0.591648 0
M  V30 6171 H 582.924 1.44062 1.45284 0
M  V30 6172 H 582.934 1.22977 3.89025 0
M  V30 6173 H 581.609 2.30067 3.46471 0
M  V30 6174 H 580.186 0.484052 3.69745 0
M  V30 6175 N 582.371 -1.3172 0.865308 0
M  V30 6176 C 583.62 -1.96145 0.470098 0
M  V30 6177 C 583.933 -1.69182 -0.981674 0
M  V30 6178 O 585.139 -2.27431 -1.48281 0
M  V30 6179 C 583.595 -3.51129 0.789732 0
M  V30 6180 C 583.203 -3.86938 2.25795 0
M  V30 6181 C 584.947 -4.2197 0.462765 0
M  V30 6182 C 582.854 -5.35012 2.52024 0
M  V30 6183 H 581.784 -0.734105 0.172065 0
M  V30 6184 H 584.435 -1.49959 1.05757 0
M  V30 6185 H 582.817 -3.95781 0.131571 0
M  V30 6186 H 583.991 -3.5326 2.95879 0
M  V30 6187 H 582.306 -3.29149 2.55049 0
M  V30 6188 H 584.903 -5.30904 0.636019 0
M  V30 6189 H 585.246 -4.12005 -0.59645 0
M  V30 6190 H 585.779 -3.82936 1.07727 0
M  V30 6191 H 582.518 -5.50008 3.56611 0
M  V30 6192 H 582.038 -5.70058 1.8653 0
M  V30 6193 H 583.717 -6.0222 2.36515 0
M  V30 6194 N 583.85 -0.624285 -1.44708 0
M  V30 6195 C 584.8 0.106466 -2.27751 0
M  V30 6196 C 585.784 0.822703 -1.38277 0
M  V30 6197 O 586.976 0.709939 -1.62138 0
M  V30 6198 C 584.105 1.092 -3.25469 0
M  V30 6199 C 583.191 0.375737 -4.22432 0
M  V30 6200 N 583.582 -0.591881 -5.02325 0
M  V30 6201 C 581.88 0.621093 -4.41654 0
M  V30 6202 C 582.581 -1.01443 -5.72786 0
M  V30 6203 N 581.557 -0.354651 -5.42442 0
M  V30 6204 H 585.359 -0.636464 -2.86926 0
M  V30 6205 H 582.873 -0.44925 -1.56062 0
M  V30 6206 H 584.87 1.63006 -3.83712 0
M  V30 6207 H 583.529 1.8353 -2.67856 0
M  V30 6208 H 584.541 -0.969389 -5.08747 0
M  V30 6209 H 581.218 1.34779 -3.95147 0
M  V30 6210 H 582.608 -1.81345 -6.46965 0
M  V30 6211 N 585.328 1.53329 -0.364422 0
M  V30 6212 C 586.744 1.59594 -0.0133165 0
M  V30 6213 C 586.944 1.37959 1.46865 0
M  V30 6214 O 586 1.18418 2.2301 0
M  V30 6215 C 587.313 2.97032 -0.468213 0
M  V30 6216 C 588.861 3.10138 -0.422334 0
M  V30 6217 C 589.336 4.49986 -0.853024 0
M  V30 6218 N 590.827 4.56098 -0.808037 0
M  V30 6219 C 591.562 5.62495 -1.11299 0
M  V30 6220 N 591.058 6.7665 -1.48717 0
M  V30 6221 N 592.851 5.52473 -1.03586 0
M  V30 6222 H 585.002 1.65644 -1.32951 0
M  V30 6223 H 587.265 0.77684 -0.543345 0
M  V30 6224 H 586.971 3.18 -1.5023 0
M  V30 6225 H 586.845 3.76918 0.145775 0
M  V30 6226 H 589.232 2.88881 0.602622 0
M  V30 6227 H 589.313 2.32263 -1.0718 0
M  V30 6228 H 588.957 4.7198 -1.87609 0
M  V30 6229 H 588.887 5.26289 -0.180819 0
M  V30 6230 H 591.378 3.74131 -0.532361 0
M  V30 6231 H 591.691 7.53776 -1.70415 0
M  V30 6232 H 590.036 6.78044 -1.52581 0
M  V30 6233 H 593.227 4.6217 -0.742736 0
M  V30 6234 H 593.4 6.35295 -1.27686 0
M  V30 6235 N 586.806 0.0935595 1.57322 0
M  V30 6236 C 587.738 -0.895923 2.10964 0
M  V30 6237 C 588.751 -1.24705 1.04654 0
M  V30 6238 O 589.94 -1.20044 1.32105 0
M  V30 6239 C 587.04 -2.20546 2.57318 0
M  V30 6240 C 586.213 -2.0299 3.87445 0
M  V30 6241 C 585.272 -3.17443 4.19662 0
M  V30 6242 O 584.298 -2.91474 4.88909 0
M  V30 6243 N 585.5 -4.43168 3.74943 0
M  V30 6244 H 588.265 -0.437788 2.96485 0
M  V30 6245 H 585.826 -0.0915863 1.61641 0
M  V30 6246 H 587.818 -2.9606 2.75917 0
M  V30 6247 H 586.388 -2.57789 1.76816 0
M  V30 6248 H 585.608 -1.11815 3.78009 0
M  V30 6249 H 586.896 -1.88535 4.7258 0
M  V30 6250 H 586.294 -4.67149 3.19043 0
M  V30 6251 H 584.851 -5.15637 3.987 0
M  V30 6252 N 588.284 -1.56567 -0.180126 0
M  V30 6253 C 589.561 -1.7235 -0.924931 0
M  V30 6254 C 589.941 -0.652523 -2.00762 0
M  V30 6255 O 589.289 0.334115 -2.26044 0
M  V30 6256 C 589.499 -3.1523 -1.49771 0
M  V30 6257 C 590.847 -3.75921 -1.97405 0
M  V30 6258 O 591.871 -3.18452 -1.59583 0
M  V30 6259 O 590.73 -4.7681 -2.67048 0
M  V30 6260 H 587.824 -0.703502 -0.434758 0
M  V30 6261 H 590.37 -1.6886 -0.168647 0
M  V30 6262 H 589.142 -3.84656 -0.718027 0
M  V30 6263 H 588.765 -3.23009 -2.31842 0
M  V30 6264 N 589.762 0.448376 -1.51087 0
M  V30 6265 C 590.71 1.56407 -1.72161 0
M  V30 6266 C 591.704 1.58878 -0.587721 0
M  V30 6267 O 592.91 1.62755 -0.768822 0
M  V30 6268 H 589.285 0.519423 -0.543786 0
M  V30 6269 H 591.256 1.35803 -2.65707 0
M  V30 6270 C 590.005 2.94163 -1.85373 0
M  V30 6271 H 589.328 2.9299 -2.72024 0
M  V30 6272 H 590.768 3.71625 -2.04135 0
M  V30 6273 C 589.227 3.31317 -0.610803 0
M  V30 6274 O 589.757 4.00985 0.239636 0
M  V30 6275 N 587.963 2.86966 -0.458127 0
M  V30 6276 H 587.51 2.30443 -1.15124 0
M  V30 6277 H 587.468 3.12188 0.372289 0
M  V30 6278 N 591.24 1.41047 0.703093 0
M  V30 6279 C 592.187 1.42302 1.81711 0
M  V30 6280 C 593.157 0.278336 1.63751 0
M  V30 6281 O 594.342 0.478266 1.84709 0
M  V30 6282 C 591.482 1.30362 3.19531 0
M  V30 6283 C 590.595 2.54638 3.48975 0
M  V30 6284 C 589.73 2.35047 4.76368 0
M  V30 6285 C 588.769 3.54837 4.98756 0
M  V30 6286 N 587.906 3.34363 6.1737 0
M  V30 6287 H 592.746 2.37516 1.79973 0
M  V30 6288 H 590.283 1.1795 0.878983 0
M  V30 6289 H 592.241 1.21443 3.99134 0
M  V30 6290 H 590.871 0.387602 3.20464 0
M  V30 6291 H 589.923 2.74037 2.63833 0
M  V30 6292 H 591.235 3.43766 3.61423 0
M  V30 6293 H 590.389 2.23552 5.64012 0
M  V30 6294 H 589.128 1.43363 4.66153 0
M  V30 6295 H 588.133 3.66795 4.09563 0
M  V30 6296 H 589.358 4.47464 5.10835 0
M  V30 6297 H 587.304 2.45373 6.08382 0
M  V30 6298 H 587.221 4.17063 6.30551 0
M  V30 6299 H 588.489 3.26626 7.07768 0
M  V30 6300 N 592.718 -0.936591 1.26751 0
M  V30 6301 C 593.958 -1.69796 1.13792 0
M  V30 6302 C 594.322 -1.89437 -0.312671 0
M  V30 6303 O 595.523 -2.62806 -0.564489 0
M  V30 6304 C 593.794 -3.03297 1.89065 0
M  V30 6305 S 595.353 -3.94461 1.92214 0
M  V30 6306 H 592.171 -0.583412 0.406389 0
M  V30 6307 H 594.773 -1.11575 1.60535 0
M  V30 6308 H 593.477 -2.86687 2.93665 0
M  V30 6309 H 593.008 -3.66575 1.42781 0
M  V30 6310 H 595.023 -4.85767 1.01215 0
M  V30 6311 N 594.196 -1.08629 -1.14182 0
M  V30 6312 C 595.126 -0.740003 -2.21464 0
M  V30 6313 C 596.107 0.278591 -1.67803 0
M  V30 6314 O 597.292 0.148461 -1.93632 0
M  V30 6315 C 594.422 -0.150952 -3.46972 0
M  V30 6316 C 593.376 -1.09815 -4.13672 0
M  V30 6317 C 592.702 -0.3712 -5.3341 0
M  V30 6318 C 594.002 -2.43722 -4.61949 0
M  V30 6319 H 595.696 -1.63697 -2.50686 0
M  V30 6320 H 593.242 -0.788526 -1.20492 0
M  V30 6321 H 595.195 0.103325 -4.21273 0
M  V30 6322 H 593.919 0.781164 -3.1712 0
M  V30 6323 H 592.578 -1.33756 -3.41328 0
M  V30 6324 H 592.226 0.564792 -4.99819 0
M  V30 6325 H 591.926 -1.00267 -5.78982 0
M  V30 6326 H 593.45 -0.12503 -6.10472 0
M  V30 6327 H 594.864 -2.24034 -5.27714 0
M  V30 6328 H 593.261 -3.02582 -5.18232 0
M  V30 6329 H 594.331 -3.05082 -3.76899 0
M  V30 6330 N 595.674 1.31259 -0.872281 0
M  V30 6331 C 596.584 2.32221 -0.333255 0
M  V30 6332 C 597.6 1.6481 0.558013 0
M  V30 6333 O 598.776 1.96212 0.454175 0
M  V30 6334 C 595.841 3.43708 0.454479 0
M  V30 6335 C 594.902 4.26774 -0.465024 0
M  V30 6336 C 594.135 5.32937 0.28521 0
M  V30 6337 O 594.358 5.49968 1.513 0
M  V30 6338 O 593.292 6.00834 -0.358126 0
M  V30 6339 H 597.118 2.80252 -1.17016 0
M  V30 6340 H 594.703 1.352 -0.635724 0
M  V30 6341 H 596.585 4.11656 0.900963 0
M  V30 6342 H 595.26 2.97836 1.26789 0
M  V30 6343 H 594.167 3.61571 -0.960055 0
M  V30 6344 H 595.5 4.76217 -1.2441 0
M  V30 6345 N 597.152 0.631951 1.44375 0
M  V30 6346 C 598.082 -0.0593243 2.33425 0
M  V30 6347 C 599.063 -0.833964 1.48253 0
M  V30 6348 O 600.248 -0.799682 1.76971 0
M  V30 6349 C 597.378 -1.04096 3.31333 0
M  V30 6350 C 596.332 -0.377899 4.26328 0
M  V30 6351 C 595.658 -1.4695 5.14111 0
M  V30 6352 C 596.958 0.716371 5.17364 0
M  V30 6353 H 598.652 0.684287 2.91475 0
M  V30 6354 H 596.198 0.330518 1.40156 0
M  V30 6355 H 598.151 -1.53331 3.92514 0
M  V30 6356 H 596.875 -1.81547 2.71493 0
M  V30 6357 H 595.534 0.0938054 3.6648 0
M  V30 6358 H 595.182 -2.2349 4.50623 0
M  V30 6359 H 594.882 -1.03121 5.78481 0
M  V30 6360 H 596.406 -1.96363 5.78164 0
M  V30 6361 H 597.82 0.307089 5.72477 0
M  V30 6362 H 596.217 1.07784 5.90341 0
M  V30 6363 H 597.287 1.58316 4.58327 0
M  V30 6364 N 598.631 -1.53133 0.372548 0
M  V30 6365 C 599.856 -2.0625 -0.218098 0
M  V30 6366 C 600.281 -1.24375 -1.41111 0
M  V30 6367 O 599.639 -0.264554 -1.79359 0
M  V30 6368 C 599.687 -3.55858 -0.582876 0
M  V30 6369 O 598.791 -3.76667 -1.67917 0
M  V30 6370 H 598.132 -0.663317 -0.030104 0
M  V30 6371 H 600.662 -1.97477 0.535169 0
M  V30 6372 H 600.672 -3.99007 -0.851925 0
M  V30 6373 H 599.347 -4.14892 0.289428 0
M  V30 6374 H 597.924 -3.45413 -1.40513 0
M  V30 6375 N 600.109 -0.101901 -1.5727 0
M  V30 6376 C 601.039 0.851544 -2.17419 0
M  V30 6377 C 602.02 1.28942 -1.10941 0
M  V30 6378 O 603.205 1.35509 -1.39107 0
M  V30 6379 C 600.335 2.10816 -2.75996 0
M  V30 6380 C 599.289 1.80867 -3.87906 0
M  V30 6381 C 598.615 3.13413 -4.33216 0
M  V30 6382 C 599.915 1.0903 -5.10793 0
M  V30 6383 H 601.609 0.350381 -2.97343 0
M  V30 6384 H 599.155 0.16709 -1.43027 0
M  V30 6385 H 601.108 2.77959 -3.16729 0
M  V30 6386 H 599.832 2.63227 -1.93337 0
M  V30 6387 H 598.491 1.16119 -3.47724 0
M  V30 6388 H 598.139 3.63725 -3.47438 0
M  V30 6389 H 597.839 2.94155 -5.08671 0
M  V30 6390 H 599.363 3.81704 -4.76586 0
M  V30 6391 H 600.777 1.66295 -5.48652 0
M  V30 6392 H 599.174 0.99927 -5.91722 0
M  V30 6393 H 600.244 0.0741704 -4.84843 0
M  V30 6394 N 601.587 1.56661 0.17182 0
M  V30 6395 C 602.998 1.71652 0.734329 0
M  V30 6396 C 603.349 0.712335 1.82812 0
M  V30 6397 O 602.474 -0.126401 2.16031 0
M  V30 6398 C 603.069 3.11226 1.3388 0
M  V30 6399 C 601.628 3.27904 1.84813 0
M  V30 6400 C 600.775 2.67603 0.726917 0
M  V30 6401 H 603.726 1.5861 -0.0535665 0
M  V30 6402 H 603.747 3.09849 2.20849 0
M  V30 6403 H 603.259 3.8429 0.54249 0
M  V30 6404 H 601.36 2.59796 2.6709 0
M  V30 6405 H 601.473 4.35637 1.99392 0
M  V30 6406 H 599.837 2.274 1.14723 0
M  V30 6407 H 600.62 3.43252 -0.0575334 0
M  V30 6408 N 603.065 -0.440357 1.51323 0
M  V30 6409 C 604.29 -1.21716 1.67928 0
M  V30 6410 C 604.715 -1.84328 0.374826 0
M  V30 6411 O 604.073 -1.68675 -0.664706 0
M  V30 6412 C 604.121 -2.27914 2.79442 0
M  V30 6413 O 603.225 -3.33325 2.42834 0
M  V30 6414 H 602.566 -0.35674 0.560029 0
M  V30 6415 H 605.096 -0.520417 1.97871 0
M  V30 6416 H 605.106 -2.72746 3.03436 0
M  V30 6417 H 603.781 -1.8172 3.741 0
M  V30 6418 H 602.358 -2.9399 2.294 0
M  V30 6419 N 604.543 -1.41418 -0.695603 0
M  V30 6420 C 605.959 -1.23887 -1.00619 0
M  V30 6421 C 606.159 -0.128206 -2.01092 0
M  V30 6422 O 605.215 0.507408 -2.47349 0
M  V30 6423 C 606.528 -2.58816 -1.53083 0
M  V30 6424 C 608.076 -2.65998 -1.64967 0
M  V30 6425 C 608.551 -4.01244 -2.20833 0
M  V30 6426 N 610.042 -4.0309 -2.28194 0
M  V30 6427 C 610.777 -5.04539 -2.72448 0
M  V30 6428 N 610.273 -6.16378 -3.16306 0
M  V30 6429 N 612.066 -4.91901 -2.72011 0
M  V30 6430 H 604.217 -2.12379 -0.0300061 0
M  V30 6431 H 606.48 -0.944958 -0.0758797 0
M  V30 6432 H 606.186 -3.40842 -0.867147 0
M  V30 6433 H 606.06 -2.81299 -2.51298 0
M  V30 6434 H 608.447 -1.84331 -2.30448 0
M  V30 6435 H 608.528 -2.47325 -0.652982 0
M  V30 6436 H 608.172 -4.83359 -1.55968 0
M  V30 6437 H 608.102 -4.17257 -3.21254 0
M  V30 6438 H 610.593 -3.22341 -1.97242 0
M  V30 6439 H 610.906 -6.89658 -3.487 0
M  V30 6440 H 609.251 -6.19914 -3.14215 0
M  V30 6441 H 612.442 -4.03613 -2.37095 0
M  V30 6442 H 612.615 -5.71102 -3.06181 0
M  V30 6443 N 606.021 0.929856 -1.27246 0
M  V30 6444 C 606.984 2.01172 -1.09829 0
M  V30 6445 C 607.984 1.60743 -0.0429687 0
M  V30 6446 O 609.174 1.71813 -0.287373 0
M  V30 6447 C 606.306 3.34191 -0.673003 0
M  V30 6448 H 607.499 2.18054 -2.05895 0
M  V30 6449 H 605.052 1.11036 -1.10003 0
M  V30 6450 H 605.787 3.23009 0.289134 0
M  V30 6451 H 605.572 3.64892 -1.43515 0
M  V30 6452 H 607.062 4.13646 -0.573323 0
M  V30 6453 N 607.499 1.09233 1.13605 0
M  V30 6454 C 608.462 0.733553 2.17144 0
M  V30 6455 C 609.462 -0.235873 1.59061 0
M  V30 6456 O 610.652 -0.0143167 1.74194 0
M  V30 6457 C 607.784 0.084471 3.40795 0
M  V30 6458 H 608.977 1.65049 2.50397 0
M  V30 6459 H 606.53 0.891264 1.28399 0
M  V30 6460 H 607.265 -0.843795 3.1313 0
M  V30 6461 H 607.05 0.781985 3.84223 0
M  V30 6462 H 608.54 -0.151216 4.17326 0
M  V30 6463 N 608.977 -1.30795 0.87923 0
M  V30 6464 C 609.94 -2.26563 0.346676 0
M  V30 6465 C 610.94 -1.52578 -0.507597 0
M  V30 6466 O 612.13 -1.71318 -0.315575 0
M  V30 6467 C 609.262 -3.37115 -0.506611 0
M  V30 6468 H 610.455 -2.75183 1.19223 0
M  V30 6469 H 608.008 -1.41886 0.655598 0
M  V30 6470 H 608.743 -2.93802 -1.37299 0
M  V30 6471 H 608.528 -3.91959 0.105218 0
M  V30 6472 H 610.018 -4.08412 -0.871192 0
M  V30 6473 N 610.455 -0.639598 -1.44038 0
M  V30 6474 C 611.385 0.0469443 -2.33453 0
M  V30 6475 C 612.366 0.82609 -1.48694 0
M  V30 6476 O 613.551 0.790285 -1.77393 0
M  V30 6477 C 610.681 1.02338 -3.3188 0
M  V30 6478 C 609.635 0.355284 -4.26523 0
M  V30 6479 C 608.961 1.44221 -5.14883 0
M  V30 6480 C 610.261 -0.743798 -5.16977 0
M  V30 6481 H 611.955 -0.699735 -2.91108 0
M  V30 6482 H 609.501 -0.337946 -1.39978 0
M  V30 6483 H 611.454 1.51247 -3.93322 0
M  V30 6484 H 610.178 1.80105 -2.72451 0
M  V30 6485 H 608.837 -0.113239 -3.66425 0
M  V30 6486 H 608.485 2.21097 -4.51802 0
M  V30 6487 H 608.185 1.00052 -5.79019 0
M  V30 6488 H 609.709 1.93295 -5.79197 0
M  V30 6489 H 611.123 -0.337444 -5.72306 0
M  V30 6490 H 609.52 -1.10914 -5.89761 0
M  V30 6491 H 610.59 -1.60745 -4.57481 0
M  V30 6492 N 611.933 1.52934 -0.380664 0
M  V30 6493 C 613.158 2.06363 0.207157 0
M  V30 6494 C 613.583 1.25122 1.4045 0
M  V30 6495 O 612.941 0.274062 1.79217 0
M  V30 6496 C 612.989 3.56162 0.563996 0
M  V30 6497 O 612.093 3.77552 1.65917 0
M  V30 6498 H 611.434 0.663468 0.0265859 0
M  V30 6499 H 613.964 1.9719 -0.545635 0
M  V30 6500 H 613.974 3.99453 0.830752 0
M  V30 6501 H 612.649 4.14732 -0.311427 0
M  V30 6502 H 611.226 3.46154 1.3868 0
M  V30 6503 N 613.412 0.11024 1.57214 0
M  V30 6504 C 614.659 -0.54987 1.94891 0
M  V30 6505 C 614.987 -1.67243 0.992984 0
M  V30 6506 O 614.242 -1.95694 0.0152703 0
M  V30 6507 C 614.541 -1.13102 3.39032 0
M  V30 6508 C 614.207 -0.130713 4.5071 0
M  V30 6509 C 612.869 0.14437 4.80983 0
M  V30 6510 C 615.221 0.551472 5.18274 0
M  V30 6511 C 612.549 1.10807 5.76141 0
M  V30 6512 C 614.901 1.50375 6.14467 0
M  V30 6513 C 613.565 1.78691 6.43138 0
M  V30 6514 H 612.835 -0.201212 0.713158 0
M  V30 6515 H 615.482 0.189288 1.90562 0
M  V30 6516 H 613.787 -1.94675 3.40013 0
M  V30 6517 H 615.484 -1.64973 3.65493 0
M  V30 6518 H 612.074 -0.355301 4.27125 0
M  V30 6519 H 616.258 0.35211 4.95049 0
M  V30 6520 H 611.514 1.3343 5.96663 0
M  V30 6521 H 615.688 2.03808 6.65909 0
M  V30 6522 H 613.315 2.53522 7.1668 0
M  V30 6523 N 614.89 -1.56749 -0.16351 0
M  V30 6524 C 616.136 -1.82704 -0.880168 0
M  V30 6525 C 616.469 -0.689311 -1.81555 0
M  V30 6526 O 615.744 0.308224 -1.92042 0
M  V30 6527 C 616.027 -3.19084 -1.66905 0
M  V30 6528 C 615.88 -4.43397 -0.756269 0
M  V30 6529 C 617.199 -3.52493 -2.63509 0
M  V30 6530 H 614.318 -0.664608 -0.318535 0
M  V30 6531 H 616.96 -1.89438 -0.146036 0
M  V30 6532 H 615.11 -3.13475 -2.2949 0
M  V30 6533 H 616.782 -4.61079 -0.14269 0
M  V30 6534 H 615.025 -4.33752 -0.0647944 0
M  V30 6535 H 615.696 -5.3539 -1.34393 0
M  V30 6536 H 618.172 -3.58606 -2.11047 0
M  V30 6537 H 617.048 -4.48979 -3.15767 0
M  V30 6538 H 617.309 -2.77597 -3.44082 0
M  V30 6539 N 616.368 0.432326 -1.51554 0
M  V30 6540 C 617.593 1.20824 -1.68571 0
M  V30 6541 C 618.018 1.84126 -0.384596 0
M  V30 6542 O 617.376 1.69025 0.655751 0
M  V30 6543 C 617.424 2.26429 -2.80646 0
M  V30 6544 O 616.528 3.32032 -2.44598 0
M  V30 6545 H 615.869 0.353765 -0.561913 0
M  V30 6546 H 618.399 0.509916 -1.98144 0
M  V30 6547 H 618.409 2.71133 -3.04878 0
M  V30 6548 H 617.084 1.79733 -3.75058 0
M  V30 6549 H 615.661 2.92769 -2.30956 0
M  V30 6550 N 617.846 1.41785 0.688094 0
M  V30 6551 C 618.776 1.47 1.8142 0
M  V30 6552 C 619.757 0.327881 1.6691 0
M  V30 6553 O 620.942 0.540362 1.86531 0
M  V30 6554 C 618.072 1.35876 3.19617 0
M  V30 6555 C 617.026 2.47976 3.48844 0
M  V30 6556 C 616.352 2.21915 4.86475 0
M  V30 6557 C 617.652 3.90309 3.47068 0
M  V30 6558 H 619.346 2.41247 1.77314 0
M  V30 6559 H 616.892 1.16116 0.851651 0
M  V30 6560 H 618.845 1.38134 3.98117 0
M  V30 6561 H 617.569 0.38116 3.24368 0
M  V30 6562 H 616.228 2.45013 2.72698 0
M  V30 6563 H 615.876 1.2248 4.8786 0
M  V30 6564 H 615.576 2.97037 5.06994 0
M  V30 6565 H 617.1 2.25901 5.67275 0
M  V30 6566 H 618.514 3.94947 4.1556 0
M  V30 6567 H 616.911 4.65175 3.7912 0
M  V30 6568 H 617.981 4.17927 2.45896 0
M  V30 6569 N 619.324 -0.923095 1.27737 0
M  V30 6570 C 620.57 -1.67375 1.14514 0
M  V30 6571 C 620.903 -1.91751 -0.307424 0
M  V30 6572 O 620.178 -1.51119 -1.22447 0
M  V30 6573 C 620.461 -3.03745 1.9342 0
M  V30 6574 C 620.314 -2.86581 3.46686 0
M  V30 6575 C 621.633 -4.04144 1.74228 0
M  V30 6576 H 618.752 -0.607427 0.417374 0
M  V30 6577 H 621.394 -1.07089 1.56946 0
M  V30 6578 H 619.544 -3.55204 1.5736 0
M  V30 6579 H 621.216 -2.42203 3.92601 0
M  V30 6580 H 619.459 -2.21829 3.72793 0
M  V30 6581 H 620.13 -3.83381 3.97143 0
M  V30 6582 H 622.606 -3.61712 2.05678 0
M  V30 6583 H 621.482 -4.97543 2.31824 0
M  V30 6584 H 621.743 -4.36661 0.691373 0
M  V30 6585 N 620.802 -1.09834 -1.13024 0
M  V30 6586 C 622.079 -0.749225 -1.80682 0
M  V30 6587 C 622.459 0.765171 -1.96744 0
M  V30 6588 O 621.807 1.68912 -1.53886 0
M  V30 6589 C 622.017 -1.49311 -3.15448 0
M  V30 6590 C 623.365 -1.66162 -3.90737 0
M  V30 6591 O 624.389 -1.45597 -3.25085 0
M  V30 6592 O 623.248 -2.00211 -5.08505 0
M  V30 6593 H 620.342 -0.269614 -0.781817 0
M  V30 6594 H 622.888 -1.20078 -1.19914 0
M  V30 6595 H 621.66 -2.52407 -2.99009 0
M  V30 6596 H 621.283 -1.034 -3.8392 0
M  V30 6597 N 622.28 1.30327 -0.886154 0
M  V30 6598 C 623.528 1.9571 -0.504195 0
M  V30 6599 C 623.849 1.70294 0.950003 0
M  V30 6600 O 623.119 1.02718 1.66811 0
M  V30 6601 H 621.699 0.72412 -0.183465 0
M  V30 6602 H 624.361 1.58835 -1.12949 0
M  V30 6603 H 623.457 3.04704 -0.675431 0
M  V30 6604 N 623.758 0.647228 1.43697 0
M  V30 6605 C 624.988 0.16551 2.05936 0
M  V30 6606 C 625.396 -1.17164 1.48557 0
M  V30 6607 O 624.739 -1.73307 0.60914 0
M  V30 6608 C 624.801 -0.00648082 3.59499 0
M  V30 6609 C 624.465 1.25503 4.39429 0
M  V30 6610 C 625.462 2.18241 4.71876 0
M  V30 6611 C 623.147 1.49494 4.79538 0
M  V30 6612 C 625.141 3.33268 5.43333 0
M  V30 6613 C 622.828 2.64815 5.50742 0
M  V30 6614 C 623.826 3.56528 5.82561 0
M  V30 6615 O 623.514 4.69836 6.52311 0
M  V30 6616 H 623.246 0.0844124 0.670709 0
M  V30 6617 H 625.8 0.88638 1.8529 0
M  V30 6618 H 624.03 -0.782661 3.78697 0
M  V30 6619 H 625.719 -0.444794 4.03456 0
M  V30 6620 H 626.485 2.00946 4.41413 0
M  V30 6621 H 622.364 0.789912 4.54182 0
M  V30 6622 H 625.908 4.04874 5.68087 0
M  V30 6623 H 621.805 2.82047 5.8062 0
M  V30 6624 H 622.573 4.69024 6.70789 0
M  V30 6625 N 625.236 -1.5273 0.388769 0
M  V30 6626 C 626.483 -2.01573 -0.19359 0
M  V30 6627 C 626.811 -1.27525 -1.46859 0
M  V30 6628 O 626.066 -0.363926 -1.92286 0
M  V30 6629 C 626.365 -3.53765 -0.508445 0
M  V30 6630 C 626.031 -4.4582 0.674947 0
M  V30 6631 C 624.693 -4.70703 0.999596 0
M  V30 6632 C 627.045 -5.00138 1.46666 0
M  V30 6633 C 624.373 -5.47155 2.11751 0
M  V30 6634 C 626.725 -5.77812 2.57518 0
M  V30 6635 C 625.389 -6.00975 2.90492 0
M  V30 6636 H 624.659 -0.737606 -0.0708397 0
M  V30 6637 H 627.306 -1.84134 0.526006 0
M  V30 6638 H 625.611 -3.69274 -1.30936 0
M  V30 6639 H 627.308 -3.8905 -0.971664 0
M  V30 6640 H 623.898 -4.26616 0.411906 0
M  V30 6641 H 628.082 -4.8084 1.22909 0
M  V30 6642 H 623.338 -5.63314 2.3767 0
M  V30 6643 H 627.512 -6.18904 3.19267 0
M  V30 6644 H 625.139 -6.59998 3.77236 0
M  V30 6645 N 626.714 -0.118576 -1.57153 0
M  V30 6646 C 628.13 0.238014 -1.57815 0
M  V30 6647 C 628.33 1.66747 -1.13127 0
M  V30 6648 O 627.386 2.38867 -0.818462 0
M  V30 6649 C 628.699 0.00508207 -3.007 0
M  V30 6650 C 630.247 0.0710139 -3.12919 0
M  V30 6651 C 630.722 -0.13422 -4.57803 0
M  V30 6652 N 632.213 -0.0801755 -4.63131 0
M  V30 6653 C 632.948 -0.213885 -5.73001 0
M  V30 6654 N 632.444 -0.403742 -6.91623 0
M  V30 6655 N 634.237 -0.15349 -5.6189 0
M  V30 6656 H 626.388 -1.05226 -1.84503 0
M  V30 6657 H 628.651 -0.414318 -0.852669 0
M  V30 6658 H 628.357 -0.983125 -3.3768 0
M  V30 6659 H 628.231 0.73714 -3.69927 0
M  V30 6660 H 630.618 1.04975 -2.75798 0
M  V30 6661 H 630.699 -0.692918 -2.46236 0
M  V30 6662 H 630.343 -1.10992 -4.95624 0
M  V30 6663 H 630.273 0.649692 -5.22577 0
M  V30 6664 H 632.764 0.0630689 -3.77847 0
M  V30 6665 H 633.077 -0.496645 -7.71202 0
M  V30 6666 H 631.422 -0.43971 -6.93608 0
M  V30 6667 H 634.613 -0.00613174 -4.681 0
M  V30 6668 H 634.786 -0.261138 -6.47474 0
M  V30 6669 N 628.193 1.56834 0.155195 0
M  V30 6670 C 629.123 2.00678 1.19376 0
M  V30 6671 C 630.104 0.884973 1.45266 0
M  V30 6672 O 631.289 1.1522 1.56326 0
M  V30 6673 C 628.419 2.38042 2.5289 0
M  V30 6674 C 627.373 3.53332 2.41538 0
M  V30 6675 C 626.699 3.76485 3.79688 0
M  V30 6676 C 627.999 4.86265 1.9064 0
M  V30 6677 H 629.693 2.87688 0.829232 0
M  V30 6678 H 627.239 1.38407 0.397445 0
M  V30 6679 H 629.192 2.67314 3.25763 0
M  V30 6680 H 627.916 1.4796 2.91162 0
M  V30 6681 H 626.575 3.24213 1.71117 0
M  V30 6682 H 626.223 2.83667 4.15382 0
M  V30 6683 H 625.923 4.54068 3.72956 0
M  V30 6684 H 627.447 4.08174 4.54122 0
M  V30 6685 H 628.861 5.14308 2.53299 0
M  V30 6686 H 627.258 5.67597 1.94818 0
M  V30 6687 H 628.328 4.77184 0.861596 0
M  V30 6688 N 629.671 -0.424282 1.51781 0
M  V30 6689 C 630.899 -1.1947 1.68921 0
M  V30 6690 C 631.314 -1.84683 0.39213 0
M  V30 6691 O 630.671 -1.71261 -0.630554 0
M  V30 6692 C 630.722 -2.26909 2.81416 0
M  V30 6693 O 630.443 -1.64361 4.061 0
M  V30 6694 C 631.944 -3.16945 3.09937 0
M  V30 6695 H 629.164 -0.359591 0.566511 0
M  V30 6696 H 631.708 -0.501139 1.98265 0
M  V30 6697 H 629.863 -2.91959 2.54635 0
M  V30 6698 H 630.277 -2.35468 4.68674 0
M  V30 6699 H 631.751 -3.88437 3.922 0
M  V30 6700 H 632.228 -3.78451 2.22871 0
M  V30 6701 H 632.834 -2.57581 3.38426 0
M  V30 6702 N 631.149 -1.42148 -0.680565 0
M  V30 6703 C 632.112 -1.4488 -1.77602 0
M  V30 6704 C 633.112 -0.337209 -1.57224 0
M  V30 6705 O 634.302 -0.597778 -1.63622 0
M  V30 6706 C 631.434 -1.27483 -3.16166 0
M  V30 6707 H 632.627 -2.42412 -1.76568 0
M  V30 6708 H 630.18 -1.28511 -0.889645 0
M  V30 6709 H 630.915 -0.30851 -3.22829 0
M  V30 6710 H 630.7 -2.08037 -3.3236 0
M  V30 6711 H 632.19 -1.32265 -3.96101 0
M  V30 6712 N 632.627 0.916307 -1.28225 0
M  V30 6713 C 633.904 1.64429 -1.05936 0
M  V30 6714 C 634.284 2.07234 0.402139 0
M  V30 6715 O 633.632 1.81535 1.3877 0
M  V30 6716 C 633.842 2.83773 -2.03159 0
M  V30 6717 C 635.19 3.54852 -2.33164 0
M  V30 6718 O 636.214 2.93918 -2.01223 0
M  V30 6719 O 635.073 4.64663 -2.87664 0
M  V30 6720 H 632.167 0.721221 -0.404683 0
M  V30 6721 H 634.713 0.965838 -1.39534 0
M  V30 6722 H 633.485 2.49217 -3.01673 0
M  V30 6723 H 633.108 3.59333 -1.70192 0
M  V30 6724 N 634.105 1.10431 1.1244 0
M  V30 6725 C 635.33 0.869089 1.88313 0
M  V30 6726 C 635.755 -0.574912 1.79099 0
M  V30 6727 O 635.113 -1.40496 1.14589 0
M  V30 6728 C 635.161 1.32208 3.3549 0
M  V30 6729 O 634.265 0.487092 4.09513 0
M  V30 6730 H 633.606 0.313894 0.585121 0
M  V30 6731 H 636.136 1.47111 1.42195 0
M  V30 6732 H 636.146 1.31201 3.86329 0
M  V30 6733 H 634.821 2.37364 3.41513 0
M  V30 6734 H 633.398 0.562372 3.68635 0
M  V30 6735 N 635.583 -1.29855 0.893053 0
M  V30 6736 C 636.808 -2.00512 0.530066 0
M  V30 6737 C 637.233 -1.66446 -0.876199 0
M  V30 6738 O 636.591 -0.885446 -1.58207 0
M  V30 6739 C 636.639 -3.53308 0.721505 0
M  V30 6740 O 635.743 -4.11764 -0.228994 0
M  V30 6741 H 635.084 -0.630617 0.207891 0
M  V30 6742 H 637.614 -1.6551 1.20282 0
M  V30 6743 H 637.624 -4.03206 0.623599 0
M  V30 6744 H 636.299 -3.77439 1.74678 0
M  V30 6745 H 634.876 -3.72805 -0.0841034 0
M  V30 6746 N 637.061 -0.65484 -1.43351 0
M  V30 6747 C 638.011 0.0581325 -2.27926 0
M  V30 6748 C 638.995 0.793188 -1.3999 0
M  V30 6749 O 640.187 0.675387 -1.63608 0
M  V30 6750 C 637.316 1.02272 -3.27712 0
M  V30 6751 C 636.402 0.286048 -4.23134 0
M  V30 6752 N 636.793 -0.698298 -5.00957 0
M  V30 6753 C 635.091 0.527272 -4.42872 0
M  V30 6754 C 635.792 -1.1357 -5.70506 0
M  V30 6755 N 634.768 -0.469631 -5.41568 0
M  V30 6756 H 638.57 -0.697182 -2.85511 0
M  V30 6757 H 636.084 -0.482252 -1.55074 0
M  V30 6758 H 638.081 1.5483 -3.87083 0
M  V30 6759 H 636.741 1.77807 -2.71688 0
M  V30 6760 H 637.752 -1.07708 -5.06576 0
M  V30 6761 H 634.429 1.26367 -3.97916 0
M  V30 6762 H 635.819 -1.95027 -6.42973 0
M  V30 6763 N 638.539 1.52521 -0.396863 0
M  V30 6764 C 639.769 2.05792 0.182485 0
M  V30 6765 C 640.177 1.26784 1.40436 0
M  V30 6766 O 639.52 0.309617 1.81072 0
M  V30 6767 C 639.582 3.54291 0.609781 0
M  V30 6768 C 639.246 4.5426 -0.499674 0
M  V30 6769 C 640.243 5.01812 -1.35944 0
M  V30 6770 C 637.928 4.97827 -0.668864 0
M  V30 6771 C 639.922 5.91562 -2.37346 0
M  V30 6772 C 637.609 5.87376 -1.68621 0
M  V30 6773 C 638.607 6.34137 -2.53692 0
M  V30 6774 O 638.295 7.21915 -3.53686 0
M  V30 6775 H 638.027 0.675362 0.0293583 0
M  V30 6776 H 640.581 1.97539 -0.56281 0
M  V30 6777 H 638.811 3.60188 1.40717 0
M  V30 6778 H 640.5 3.90267 1.11565 0
M  V30 6779 H 641.266 4.68879 -1.24008 0
M  V30 6780 H 637.145 4.60997 -0.0163971 0
M  V30 6781 H 640.689 6.27983 -3.03782 0
M  V30 6782 H 636.586 6.19723 -1.80593 0
M  V30 6783 H 637.354 7.39996 -3.49784 0
M  V30 6784 N 640.017 0.126909 1.57088 0
M  V30 6785 C 640.947 -0.816847 2.18746 0
M  V30 6786 C 641.928 -1.27161 1.12979 0
M  V30 6787 O 643.113 -1.33279 1.41246 0
M  V30 6788 C 640.243 -2.06398 2.79315 0
M  V30 6789 C 639.197 -1.74673 3.90735 0
M  V30 6790 C 638.523 -3.06482 4.38147 0
M  V30 6791 C 639.823 -1.0089 5.12463 0
M  V30 6792 H 641.517 -0.303032 2.97863 0
M  V30 6793 H 639.063 -0.144314 1.43275 0
M  V30 6794 H 641.016 -2.72885 3.2111 0
M  V30 6795 H 639.74 -2.60118 1.975 0
M  V30 6796 H 638.399 -1.10572 3.49527 0
M  V30 6797 H 638.047 -3.58152 3.5318 0
M  V30 6798 H 637.747 -2.86025 5.13287 0
M  V30 6799 H 639.271 -3.74073 4.82599 0
M  V30 6800 H 640.685 -1.57546 5.51228 0
M  V30 6801 H 639.082 -0.905006 5.93237 0
M  V30 6802 H 640.152 0.00297335 4.849 0
M  V30 6803 N 641.495 -1.56914 -0.146875 0
M  V30 6804 C 642.735 -1.85163 -0.86568 0
M  V30 6805 C 643.099 -0.711215 -1.78342 0
M  V30 6806 O 644.3 -0.874754 -2.54168 0
M  V30 6807 C 642.571 -3.18593 -1.61967 0
M  V30 6808 S 644.13 -3.68397 -2.38388 0
M  V30 6809 H 640.948 -0.6494 -0.289483 0
M  V30 6810 H 643.55 -1.95096 -0.125679 0
M  V30 6811 H 642.254 -3.99562 -0.93694 0
M  V30 6812 H 641.785 -3.11666 -2.40058 0
M  V30 6813 H 643.8 -3.37672 -3.63582 0
M  V30 6814 N 642.974 0.416227 -1.52004 0
M  V30 6815 C 643.924 1.50558 -1.7122 0
M  V30 6816 C 644.908 1.50613 -0.56609 0
M  V30 6817 O 646.1 1.56709 -0.822874 0
M  V30 6818 C 643.229 2.88556 -1.85984 0
M  V30 6819 C 642.315 2.93177 -3.06445 0
M  V30 6820 N 642.706 2.67505 -4.29272 0
M  V30 6821 C 641.004 3.24343 -3.06133 0
M  V30 6822 C 641.705 2.78511 -5.10692 0
M  V30 6823 N 640.681 3.11087 -4.45787 0
M  V30 6824 H 644.483 1.29494 -2.63834 0
M  V30 6825 H 641.997 0.62384 -1.4994 0
M  V30 6826 H 643.994 3.66954 -1.97865 0
M  V30 6827 H 642.654 3.10624 -0.945654 0
M  V30 6828 H 643.665 2.42033 -4.57865 0
M  V30 6829 H 640.342 3.52051 -2.24425 0
M  V30 6830 H 641.732 2.62438 -6.18527 0
M  V30 6831 N 644.452 1.42507 0.673017 0
M  V30 6832 C 645.362 1.4853 1.81593 0
M  V30 6833 C 646.378 0.373907 1.69935 0
M  V30 6834 O 647.554 0.625078 1.91454 0
M  V30 6835 C 644.619 1.387 3.17747 0
M  V30 6836 C 643.68 2.60346 3.41348 0
M  V30 6837 C 642.913 2.50975 4.71007 0
M  V30 6838 O 643.136 1.54659 5.49033 0
M  V30 6839 O 642.07 3.41138 4.95892 0
M  V30 6840 H 645.896 2.45001 1.79467 0
M  V30 6841 H 643.481 1.2429 0.82899 0
M  V30 6842 H 645.363 1.35586 3.98992 0
M  V30 6843 H 644.038 0.453555 3.20507 0
M  V30 6844 H 642.945 2.69034 2.59945 0
M  V30 6845 H 644.278 3.52595 3.43421 0
M  V30 6846 N 645.93 -0.909495 1.28709 0
M  V30 6847 C 647.176 -1.66151 1.16283 0
M  V30 6848 C 647.509 -1.92067 -0.287069 0
M  V30 6849 O 646.784 -1.52409 -1.20837 0
M  V30 6850 C 647.067 -3.01676 1.9663 0
M  V30 6851 C 646.92 -2.82888 3.49707 0
M  V30 6852 C 648.239 -4.02274 1.78504 0
M  V30 6853 H 645.358 -0.602966 0.423793 0
M  V30 6854 H 648 -1.05418 1.58073 0
M  V30 6855 H 646.15 -3.53515 1.61119 0
M  V30 6856 H 647.822 -2.38026 3.95147 0
M  V30 6857 H 646.065 -2.17862 3.75125 0
M  V30 6858 H 646.736 -3.79147 4.01187 0
M  V30 6859 H 649.212 -3.59511 2.09503 0
M  V30 6860 H 648.088 -4.95056 2.37088 0
M  V30 6861 H 648.349 -4.35903 0.737647 0
M  V30 6862 N 647.408 -1.11026 -1.11852 0
M  V30 6863 C 648.371 -0.768006 -2.1595 0
M  V30 6864 C 649.371 0.210538 -1.59416 0
M  V30 6865 O 650.561 -0.0133978 -1.74195 0
M  V30 6866 C 647.693 -0.138678 -3.40618 0
M  V30 6867 H 648.886 -1.69012 -2.4774 0
M  V30 6868 H 646.439 -0.911578 -1.26964 0
M  V30 6869 H 647.174 0.793872 -3.14433 0
M  V30 6870 H 646.959 -0.843012 -3.8293 0
M  V30 6871 H 648.449 0.0848039 -4.17514 0
M  V30 6872 N 648.886 1.2938 -0.899927 0
M  V30 6873 C 650.297 1.77644 -0.574427 0
M  V30 6874 C 650.648 1.73824 0.909928 0
M  V30 6875 O 649.773 1.32429 1.71147 0
M  V30 6876 C 650.368 3.22573 -1.03595 0
M  V30 6877 C 648.927 3.68614 -0.76161 0
M  V30 6878 C 648.074 2.49483 -1.21052 0
M  V30 6879 H 651.025 1.16038 -1.08263 0
M  V30 6880 H 651.046 3.78684 -0.371337 0
M  V30 6881 H 650.558 3.25321 -2.11631 0
M  V30 6882 H 648.659 3.7134 0.306127 0
M  V30 6883 H 648.772 4.59402 -1.35965 0
M  V30 6884 H 647.136 2.46798 -0.629515 0
M  V30 6885 H 647.919 2.54959 -2.29893 0
M  V30 6886 N 650.364 0.662433 1.43002 0
M  V30 6887 C 651.775 0.258315 1.84904 0
M  V30 6888 C 652.126 -1.19703 1.55453 0
M  V30 6889 O 651.251 -1.91484 1.00811 0
M  V30 6890 C 651.846 0.462047 3.35635 0
M  V30 6891 C 650.405 0.112165 3.76233 0
M  V30 6892 C 649.552 0.760479 2.66668 0
M  V30 6893 H 652.503 0.865467 1.33024 0
M  V30 6894 H 652.524 -0.289646 3.79396 0
M  V30 6895 H 652.036 1.52135 3.57039 0
M  V30 6896 H 650.137 -0.944179 3.60439 0
M  V30 6897 H 650.25 0.544058 4.76001 0
M  V30 6898 H 648.614 0.192887 2.53969 0
M  V30 6899 H 649.397 1.82299 2.90898 0
M  V30 6900 N 651.842 -1.52309 0.404946 0
M  V30 6901 C 653.258 -1.59503 0.0556255 0
M  V30 6902 C 653.458 -1.41805 -1.43156 0
M  V30 6903 O 652.514 -1.2429 -2.19792 0
M  V30 6904 C 653.827 -2.95687 0.546801 0
M  V30 6905 C 655.375 -3.08909 0.504413 0
M  V30 6906 C 655.85 -4.47566 0.97203 0
M  V30 6907 N 657.341 -4.53795 0.928679 0
M  V30 6908 C 658.076 -5.59346 1.26174 0
M  V30 6909 N 657.572 -6.72469 1.66604 0
M  V30 6910 N 659.365 -5.49532 1.18198 0
M  V30 6911 H 651.516 -1.6206 1.37296 0
M  V30 6912 H 653.779 -0.762161 0.563751 0
M  V30 6913 H 653.485 -3.13905 1.58609 0
M  V30 6914 H 653.359 -3.77172 -0.0457905 0
M  V30 6915 H 655.746 -2.90378 -0.525819 0
M  V30 6916 H 655.827 -2.2934 1.13301 0
M  V30 6917 H 655.471 -4.6684 2.00057 0
M  V30 6918 H 655.401 -5.25625 0.320292 0
M  V30 6919 H 657.892 -3.72588 0.631369 0
M  V30 6920 H 658.205 -7.48993 1.9034 0
M  V30 6921 H 656.55 -6.73761 1.70504 0
M  V30 6922 H 659.741 -4.60038 0.865011 0
M  V30 6923 H 659.914 -6.31687 1.44485 0
M  V30 6924 N 653.32 -0.135238 -1.57019 0
M  V30 6925 C 654.25 0.805235 -2.19176 0
M  V30 6926 C 655.231 1.2656 -1.13651 0
M  V30 6927 O 656.416 1.32528 -1.4195 0
M  V30 6928 C 653.546 2.04914 -2.80406 0
M  V30 6929 C 652.5 1.72598 -3.91655 0
M  V30 6930 C 651.826 3.04154 -4.39766 0
M  V30 6931 C 653.126 0.981709 -5.12991 0
M  V30 6932 H 654.82 0.287232 -2.98019 0
M  V30 6933 H 652.366 0.136714 -1.4335 0
M  V30 6934 H 654.319 2.71178 -3.22553 0
M  V30 6935 H 653.043 2.59067 -1.98877 0
M  V30 6936 H 651.702 1.08717 -3.50109 0
M  V30 6937 H 651.35 3.56274 -3.55075 0
M  V30 6938 H 651.05 2.83299 -5.14796 0
M  V30 6939 H 652.574 3.71509 -4.84576 0
M  V30 6940 H 653.988 1.5462 -5.52056 0
M  V30 6941 H 652.385 0.873533 -5.93708 0
M  V30 6942 H 653.455 -0.0286887 -4.84892 0
M  V30 6943 N 654.798 1.5699 0.138552 0
M  V30 6944 C 656.044 1.84081 0.85099 0
M  V30 6945 C 656.377 0.718107 1.80435 0
M  V30 6946 O 655.652 -0.277633 1.92508 0
M  V30 6947 C 655.935 3.21699 1.61808 0
M  V30 6948 C 655.788 4.44544 0.685633 0
M  V30 6949 C 657.107 3.5664 2.57868 0
M  V30 6950 H 654.226 0.669592 0.307922 0
M  V30 6951 H 656.868 1.89646 0.11588 0
M  V30 6952 H 655.018 3.17086 2.24474 0
M  V30 6953 H 656.69 4.61248 0.0693179 0
M  V30 6954 H 654.933 4.338 -0.00421993 0
M  V30 6955 H 655.604 5.3746 1.25858 0
M  V30 6956 H 658.08 3.61918 2.05316 0
M  V30 6957 H 656.956 4.53946 3.08584 0
M  V30 6958 H 657.217 2.83036 3.39622 0
M  V30 6959 N 656.276 -0.40816 1.52223 0
M  V30 6960 C 657.209 -1.51834 1.70357 0
M  V30 6961 C 658.187 -1.52973 0.551171 0
M  V30 6962 O 659.371 -1.71667 0.778642 0
M  V30 6963 C 656.498 -2.90362 1.74378 0
M  V30 6964 C 655.544 -3.0713 2.95928 0
M  V30 6965 S 656.377 -2.80342 4.56255 0
M  V30 6966 C 657.533 -4.21098 4.63063 0
M  V30 6967 H 657.766 -1.36223 2.64255 0
M  V30 6968 H 655.299 -0.599798 1.42274 0
M  V30 6969 H 657.257 -3.70199 1.77379 0
M  V30 6970 H 655.918 -3.03314 0.816063 0
M  V30 6971 H 655.111 -4.08482 2.95226 0
M  V30 6972 H 654.713 -2.3516 2.90819 0
M  V30 6973 H 657.005 -5.14749 4.40499 0
M  V30 6974 H 657.948 -4.26823 5.65002 0
M  V30 6975 H 658.356 -4.06114 3.92086 0
M  V30 6976 N 657.755 -1.42862 -0.66545 0
M  V30 6977 C 658.98 -1.47456 -1.45848 0
M  V30 6978 C 659.405 -0.0900312 -1.87884 0
M  V30 6979 O 658.763 0.913587 -1.56599 0
M  V30 6980 C 658.811 -2.41514 -2.67774 0
M  V30 6981 O 657.915 -1.89296 -3.66389 0
M  V30 6982 H 657.256 -0.499236 -0.437789 0
M  V30 6983 H 659.786 -1.8765 -0.815394 0
M  V30 6984 H 659.796 -2.58409 -3.15735 0
M  V30 6985 H 658.471 -3.42099 -2.36519 0
M  V30 6986 H 657.048 -1.82003 -3.25468 0
M  V30 6987 N 659.233 0.902656 -1.29189 0
M  V30 6988 C 660.482 1.6475 -1.16362 0
M  V30 6989 C 660.795 1.93517 0.284682 0
M  V30 6990 O 662.001 2.66192 0.534229 0
M  V30 6991 C 660.457 2.96848 -2.03493 0
M  V30 6992 C 660.065 2.75687 -3.5313 0
M  V30 6993 C 661.809 3.74762 -1.99383 0
M  V30 6994 C 659.716 4.03492 -4.32375 0
M  V30 6995 H 658.646 0.618041 -0.431904 0
M  V30 6996 H 661.297 1.0008 -1.53806 0
M  V30 6997 H 659.679 3.62715 -1.58916 0
M  V30 6998 H 660.853 2.18431 -4.05739 0
M  V30 6999 H 659.168 2.11171 -3.58881 0
M  V30 7000 H 661.765 4.69515 -2.5585 0
M  V30 7001 H 662.108 4.04767 -0.973123 0
M  V30 7002 H 662.641 3.15732 -2.41988 0
M  V30 7003 H 659.38 3.78656 -5.3507 0
M  V30 7004 H 658.9 4.60318 -3.84535 0
M  V30 7005 H 660.579 4.71662 -4.42881 0
M  V30 7006 N 660.711 1.11618 1.11262 0
M  V30 7007 C 662.127 0.850468 1.35053 0
M  V30 7008 C 662.327 -0.523868 1.94571 0
M  V30 7009 O 661.383 -1.2743 2.17986 0
M  V30 7010 C 662.696 1.96005 2.28041 0
M  V30 7011 C 664.244 1.98993 2.416 0
M  V30 7012 C 664.719 3.0916 3.37911 0
M  V30 7013 N 666.21 3.08547 3.45475 0
M  V30 7014 C 666.945 3.9043 4.19943 0
M  V30 7015 N 666.441 4.8228 4.97371 0
M  V30 7016 N 668.234 3.786 4.15474 0
M  V30 7017 H 660.385 2.00184 0.709932 0
M  V30 7018 H 662.648 0.870635 0.375099 0
M  V30 7019 H 662.354 2.9499 1.91503 0
M  V30 7020 H 662.228 1.85782 3.28275 0
M  V30 7021 H 664.615 1.00633 2.77411 0
M  V30 7022 H 664.696 2.13292 1.4121 0
M  V30 7023 H 664.34 4.07748 3.02827 0
M  V30 7024 H 664.27 2.92102 4.3816 0
M  V30 7025 H 666.761 2.42 2.90249 0
M  V30 7026 H 667.074 5.41289 5.51567 0
M  V30 7027 H 665.419 4.863 4.96525 0
M  V30 7028 H 668.61 3.06185 3.54074 0
M  V30 7029 H 668.783 4.42647 4.73253 0
M  V30 7030 N 662.189 -1.289 0.906776 0
M  V30 7031 C 663.466 -1.90221 0.455537 0
M  V30 7032 C 663.846 -1.82251 -1.06527 0
M  V30 7033 O 663.194 -1.25385 -1.91026 0
M  V30 7034 C 663.404 -3.35015 0.97806 0
M  V30 7035 C 664.752 -4.12018 1.02598 0
M  V30 7036 O 665.776 -3.43947 0.926218 0
M  V30 7037 O 664.635 -5.33677 1.17689 0
M  V30 7038 H 661.729 -0.814505 0.143214 0
M  V30 7039 H 664.275 -1.37317 0.997104 0
M  V30 7040 H 663.047 -3.35006 2.02204 0
M  V30 7041 H 662.67 -3.95408 0.416914 0
M  V30 7042 N 663.667 -0.670007 -1.42649 0
M  V30 7043 C 664.915 -0.18991 -2.01206 0
M  V30 7044 C 665.236 1.20617 -1.53221 0
M  V30 7045 O 664.506 1.80898 -0.751856 0
M  V30 7046 H 663.086 -0.0672189 -0.743969 0
M  V30 7047 H 665.748 -0.865442 -1.74631 0
M  V30 7048 H 664.844 -0.187481 -3.11536 0
M  V30 7049 N 665.145 1.52092 -0.413018 0
M  V30 7050 C 666.394 2.01041 0.16287 0
M  V30 7051 C 666.707 1.30288 1.45892 0
M  V30 7052 O 667.913 1.70075 2.11629 0
M  V30 7053 C 666.369 3.58283 0.340806 0
M  V30 7054 C 665.977 4.37955 -0.943377 0
M  V30 7055 C 667.721 4.15452 0.871774 0
M  V30 7056 C 665.628 5.86847 -0.732417 0
M  V30 7057 H 664.558 0.751224 0.0646414 0
M  V30 7058 H 667.209 1.75404 -0.539059 0
M  V30 7059 H 665.591 3.80266 1.10516 0
M  V30 7060 H 666.765 4.2773 -1.71418 0
M  V30 7061 H 665.08 3.92122 -1.40105 0
M  V30 7062 H 667.677 5.24375 1.0457 0
M  V30 7063 H 668.02 3.73057 1.84755 0
M  V30 7064 H 668.553 3.97452 0.166377 0
M  V30 7065 H 665.292 6.33609 -1.67986 0
M  V30 7066 H 664.812 5.998 -0.000980058 0
M  V30 7067 H 666.491 6.45906 -0.376105 0
M  V30 7068 N 666.623 0.143563 1.56945 0
M  V30 7069 C 667.573 -0.809115 2.1316 0
M  V30 7070 C 668.557 -1.21176 1.05855 0
M  V30 7071 O 669.749 -1.17875 1.3204 0
M  V30 7072 C 666.878 -2.04957 2.75405 0
M  V30 7073 C 665.964 -1.67018 3.89828 0
M  V30 7074 N 666.355 -0.998822 4.9584 0
M  V30 7075 C 664.653 -1.96313 4.00471 0
M  V30 7076 C 665.354 -0.816217 5.75945 0
M  V30 7077 N 664.33 -1.349 5.26596 0
M  V30 7078 H 668.132 -0.286919 2.92496 0
M  V30 7079 H 665.646 -0.0580948 1.62296 0
M  V30 7080 H 667.643 -2.74201 3.14037 0
M  V30 7081 H 666.303 -2.57697 1.97541 0
M  V30 7082 H 667.314 -0.659975 5.13678 0
M  V30 7083 H 663.991 -2.50927 3.33679 0
M  V30 7084 H 665.381 -0.287353 6.71285 0
M  V30 7085 N 668.101 -1.57061 -0.130224 0
M  V30 7086 C 669.349 -1.83893 -0.838313 0
M  V30 7087 C 669.67 -0.727046 -1.80939 0
M  V30 7088 O 668.94 0.249927 -1.94299 0
M  V30 7089 H 667.52 -0.67846 -0.312573 0
M  V30 7090 H 670.182 -1.94529 -0.120224 0
M  V30 7091 H 669.278 -2.79419 -1.39038 0
M  V30 7092 N 669.579 0.400081 -1.52437 0
M  V30 7093 C 670.99 0.97851 -1.59003 0
M  V30 7094 C 671.341 1.91293 -0.436068 0
M  V30 7095 O 670.466 2.1183 0.442365 0
M  V30 7096 C 671.061 1.78145 -2.88184 0
M  V30 7097 C 669.62 2.30976 -2.97199 0
M  V30 7098 C 668.767 1.11212 -2.54022 0
M  V30 7099 H 671.718 0.180002 -1.57676 0
M  V30 7100 H 671.739 2.63968 -2.74046 0
M  V30 7101 H 671.251 1.1011 -3.72152 0
M  V30 7102 H 669.352 3.02355 -2.17744 0
M  V30 7103 H 669.465 2.61221 -4.01622 0
M  V30 7104 H 667.829 1.46882 -2.08081 0
M  V30 7105 H 668.612 0.447307 -3.40373 0
M  V30 7106 N 671.057 1.43213 0.657864 0
M  V30 7107 C 671.987 1.50815 1.78262 0
M  V30 7108 C 672.968 0.363211 1.66177 0
M  V30 7109 O 674.153 0.579806 1.85343 0
M  V30 7110 C 671.283 1.42625 3.16663 0
M  V30 7111 C 670.237 2.5532 3.43505 0
M  V30 7112 C 669.563 2.32184 4.81658 0
M  V30 7113 C 670.863 3.97583 3.38711 0
M  V30 7114 H 672.557 2.44954 1.72157 0
M  V30 7115 H 670.103 1.17896 0.82683 0
M  V30 7116 H 672.056 1.46548 3.95097 0
M  V30 7117 H 670.78 0.449877 3.23487 0
M  V30 7118 H 669.439 2.50742 2.6744 0
M  V30 7119 H 669.087 1.32801 4.85153 0
M  V30 7120 H 668.787 3.07724 5.00579 0
M  V30 7121 H 670.311 2.37883 5.62356 0
M  V30 7122 H 671.725 4.03673 4.07089 0
M  V30 7123 H 670.122 4.73112 3.69168 0
M  V30 7124 H 671.192 4.23049 2.36976 0
M  V30 7125 N 672.536 -0.895792 1.29666 0
M  V30 7126 C 673.466 -2.01673 1.17688 0
M  V30 7127 C 674.447 -1.69955 0.0701317 0
M  V30 7128 O 675.632 -1.9258 0.250289 0
M  V30 7129 C 672.762 -3.36568 0.856681 0
M  V30 7130 C 671.716 -3.82509 1.92017 0
M  V30 7131 C 671.042 -5.14574 1.4532 0
M  V30 7132 C 672.342 -4.02409 3.32963 0
M  V30 7133 H 674.036 -2.11953 2.11463 0
M  V30 7134 H 671.582 -1.01839 1.01807 0
M  V30 7135 H 673.535 -4.14498 0.759577 0
M  V30 7136 H 672.259 -3.26391 -0.116763 0
M  V30 7137 H 670.918 -3.068 2.00673 0
M  V30 7138 H 670.566 -5.00815 0.468325 0
M  V30 7139 H 670.266 -5.46283 2.16447 0
M  V30 7140 H 671.79 -5.9504 1.36968 0
M  V30 7141 H 673.204 -4.70808 3.27127 0
M  V30 7142 H 671.601 -4.45478 4.02082 0
M  V30 7143 H 672.671 -3.06616 3.75652 0
M  V30 7144 N 674.014 -1.12206 -1.10668 0
M  V30 7145 C 674.924 -0.800686 -2.20513 0
M  V30 7146 C 675.94 0.209512 -1.72734 0
M  V30 7147 O 677.116 0.043705 -2.01353 0
M  V30 7148 C 674.181 -0.257353 -3.45744 0
M  V30 7149 C 673.242 -1.32718 -4.0827 0
M  V30 7150 C 672.475 -0.809674 -5.27522 0
M  V30 7151 O 672.698 0.35742 -5.69279 0
M  V30 7152 O 671.632 -1.57816 -5.80842 0
M  V30 7153 H 675.458 -1.71807 -2.50432 0
M  V30 7154 H 673.043 -0.898546 -1.19359 0
M  V30 7155 H 674.925 0.0408849 -4.2138 0
M  V30 7156 H 673.6 0.632627 -3.17458 0
M  V30 7157 H 672.507 -1.67855 -3.34329 0
M  V30 7158 H 673.84 -2.19083 -4.40753 0
M  V30 7159 N 675.492 1.28418 -0.913599 0
M  V30 7160 C 676.903 1.77024 -0.593237 0
M  V30 7161 C 677.254 1.74779 0.891441 0
M  V30 7162 O 676.379 1.34237 1.69733 0
M  V30 7163 C 676.974 3.21456 -1.07011 0
M  V30 7164 C 675.533 3.67786 -0.800664 0
M  V30 7165 C 674.68 2.48185 -1.23691 0
M  V30 7166 H 677.631 1.14883 -1.09487 0
M  V30 7167 H 677.652 3.78269 -0.411481 0
M  V30 7168 H 677.164 3.23058 -2.1507 0
M  V30 7169 H 675.265 3.71644 0.266725 0
M  V30 7170 H 675.378 4.57934 -1.4083 0
M  V30 7171 H 673.742 2.46116 -0.655655 0
M  V30 7172 H 674.525 2.52506 -2.32585 0
M  V30 7173 N 676.97 0.677563 1.42291 0
M  V30 7174 C 678.217 0.200975 2.015 0
M  V30 7175 C 678.545 -1.19342 1.53583 0
M  V30 7176 O 677.8 -1.81579 0.7299 0
M  V30 7177 C 678.099 0.187229 3.56909 0
M  V30 7178 C 677.765 1.52667 4.24268 0
M  V30 7179 C 676.427 1.89341 4.42384 0
M  V30 7180 C 678.779 2.40869 4.62203 0
M  V30 7181 C 676.107 3.13836 4.95705 0
M  V30 7182 C 678.459 3.64679 5.16906 0
M  V30 7183 C 677.123 4.01519 5.33234 0
M  V30 7184 H 676.393 0.0735418 0.737342 0
M  V30 7185 H 679.04 0.873095 1.70439 0
M  V30 7186 H 677.345 -0.568407 3.87655 0
M  V30 7187 H 679.042 -0.198773 4.00507 0
M  V30 7188 H 675.632 1.23138 4.1053 0
M  V30 7189 H 679.816 2.1382 4.47878 0
M  V30 7190 H 675.072 3.42396 5.06532 0
M  V30 7191 H 679.246 4.33224 5.45243 0
M  V30 7192 H 676.873 4.98062 5.74316 0
M  V30 7193 N 678.448 -1.51871 0.421078 0
M  V30 7194 C 679.694 -2.02237 -0.151014 0
M  V30 7195 C 680.027 -1.30554 -1.43768 0
M  V30 7196 O 679.302 -0.41546 -1.90011 0
M  V30 7197 C 679.585 -3.5802 -0.386482 0
M  V30 7198 C 679.438 -4.40339 0.9177 0
M  V30 7199 C 680.757 -4.24444 -1.16342 0
M  V30 7200 H 677.876 -0.735062 -0.0534102 0
M  V30 7201 H 680.518 -1.81656 0.556888 0
M  V30 7202 H 678.668 -3.75688 -0.989494 0
M  V30 7203 H 680.34 -4.34357 1.55344 0
M  V30 7204 H 678.583 -4.06073 1.526 0
M  V30 7205 H 679.254 -5.47451 0.707187 0
M  V30 7206 H 681.73 -4.10948 -0.652788 0
M  V30 7207 H 680.606 -5.33358 -1.29693 0
M  V30 7208 H 680.867 -3.84204 -2.18724 0
M  V30 7209 N 679.926 -0.151884 -1.56866 0
M  V30 7210 C 680.858 0.817008 -2.14144 0
M  V30 7211 C 681.871 1.20735 -1.0921 0
M  V30 7212 O 683.06 1.15058 -1.36469 0
M  V30 7213 C 680.16 2.10844 -2.65326 0
M  V30 7214 C 679.333 1.88471 -3.94712 0
M  V30 7215 C 678.392 3.01649 -4.31155 0
M  V30 7216 O 677.418 2.73127 -4.9939 0
M  V30 7217 N 678.62 4.28947 -3.91132 0
M  V30 7218 H 681.385 0.327448 -2.97906 0
M  V30 7219 H 678.946 0.0315313 -1.61869 0
M  V30 7220 H 680.938 2.85616 -2.86715 0
M  V30 7221 H 679.508 2.51049 -1.86262 0
M  V30 7222 H 678.728 0.977088 -3.81899 0
M  V30 7223 H 680.016 1.70866 -4.79252 0
M  V30 7224 H 679.414 4.54986 -3.36161 0
M  V30 7225 H 677.971 5.00484 -4.17563 0
M  V30 7226 N 681.404 1.57128 0.121893 0
M  V30 7227 C 682.367 1.99197 1.13372 0
M  V30 7228 C 683.367 0.881728 1.3447 0
M  V30 7229 O 684.557 1.14783 1.31036 0
M  V30 7230 C 681.689 2.32963 2.4888 0
M  V30 7231 H 682.882 2.89788 0.772204 0
M  V30 7232 H 680.435 1.51952 0.366093 0
M  V30 7233 H 681.17 1.45243 2.89957 0
M  V30 7234 H 680.955 3.13934 2.34921 0
M  V30 7235 H 682.445 2.66261 3.21706 0
M  V30 7236 N 682.882 -0.391992 1.52647 0
M  V30 7237 C 683.829 -1.47866 1.77213 0
M  V30 7238 C 684.799 -1.54286 0.615223 0
M  V30 7239 O 685.984 -1.7059 0.854622 0
M  V30 7240 C 683.124 -2.85129 1.94411 0
M  V30 7241 C 682.237 -2.87883 3.22098 0
M  V30 7242 C 681.372 -4.16553 3.29631 0
M  V30 7243 C 680.411 -4.13348 4.51453 0
M  V30 7244 N 679.548 -5.33619 4.56284 0
M  V30 7245 H 684.388 -1.26219 2.6995 0
M  V30 7246 H 681.925 -0.612367 1.33748 0
M  V30 7247 H 683.883 -3.64833 2.02367 0
M  V30 7248 H 682.513 -3.05232 1.05038 0
M  V30 7249 H 681.565 -2.00567 3.23229 0
M  V30 7250 H 682.877 -2.81382 4.11856 0
M  V30 7251 H 682.031 -5.0466 3.36753 0
M  V30 7252 H 680.77 -4.25773 2.37842 0
M  V30 7253 H 679.775 -3.23629 4.44459 0
M  V30 7254 H 681 -4.05754 5.44555 0
M  V30 7255 H 678.946 -5.43474 3.67385 0
M  V30 7256 H 678.863 -5.29182 5.3991 0
M  V30 7257 H 680.131 -6.23632 4.67657 0
M  V30 7258 N 684.36 -1.4356 -0.65026 0
M  V30 7259 C 685.29 -1.51758 -1.77459 0
M  V30 7260 C 686.271 -0.372019 -1.65982 0
M  V30 7261 O 687.456 -0.589627 -1.85033 0
M  V30 7262 C 684.586 -1.44302 -3.15902 0
M  V30 7263 C 683.54 -2.57138 -3.42146 0
M  V30 7264 C 682.866 -2.34735 -4.8042 0
M  V30 7265 C 684.166 -3.99373 -3.36598 0
M  V30 7266 H 685.86 -2.45863 -1.70855 0
M  V30 7267 H 683.406 -1.18333 -0.820566 0
M  V30 7268 H 685.359 -1.48641 -3.94314 0
M  V30 7269 H 684.083 -0.467026 -3.23244 0
M  V30 7270 H 682.742 -2.52157 -2.66106 0
M  V30 7271 H 682.39 -1.35372 -4.84441 0
M  V30 7272 H 682.09 -3.10375 -4.9894 0
M  V30 7273 H 683.614 -2.40862 -5.61086 0
M  V30 7274 H 685.028 -4.05826 -4.04942 0
M  V30 7275 H 683.425 -4.75063 -3.66654 0
M  V30 7276 H 684.495 -4.243 -2.34729 0
M  V30 7277 N 685.838 0.888903 -1.30139 0
M  V30 7278 C 687.254 1.17153 -1.08385 0
M  V30 7279 C 687.454 2.0088 0.157925 0
M  V30 7280 O 686.51 2.37668 0.852652 0
M  V30 7281 C 687.823 1.882 -2.34523 0
M  V30 7282 C 689.371 2.00981 -2.39949 0
M  V30 7283 C 689.846 2.75441 -3.65918 0
M  V30 7284 N 691.337 2.82989 -3.66704 0
M  V30 7285 C 692.072 3.41167 -4.60861 0
M  V30 7286 N 691.568 4.00425 -5.6536 0
M  V30 7287 N 693.361 3.38944 -4.48412 0
M  V30 7288 H 685.512 0.33053 -2.09812 0
M  V30 7289 H 687.775 0.208964 -0.924683 0
M  V30 7290 H 687.481 1.34119 -3.25123 0
M  V30 7291 H 687.355 2.88609 -2.42868 0
M  V30 7292 H 689.742 2.54234 -1.4983 0
M  V30 7293 H 689.823 0.996725 -2.35582 0
M  V30 7294 H 689.467 2.22861 -4.56394 0
M  V30 7295 H 689.397 3.77118 -3.67546 0
M  V30 7296 H 691.888 2.40912 -2.91153 0
M  V30 7297 H 692.201 4.42871 -6.33313 0
M  V30 7298 H 690.546 3.98856 -5.69157 0
M  V30 7299 H 693.737 2.91875 -3.6596 0
M  V30 7300 H 693.91 3.83989 -5.21974 0
M  V30 7301 N 687.317 1.12792 1.10072 0
M  V30 7302 C 688.728 0.899346 1.63611 0
M  V30 7303 C 689.079 -0.565547 1.87872 0
M  V30 7304 O 688.204 -1.43081 1.62348 0
M  V30 7305 C 688.799 1.62608 2.97227 0
M  V30 7306 C 687.358 1.44356 3.47618 0
M  V30 7307 C 686.505 1.65958 2.22156 0
M  V30 7308 H 689.456 1.28216 0.935223 0
M  V30 7309 H 689.477 1.0793 3.64872 0
M  V30 7310 H 688.989 2.69221 2.79538 0
M  V30 7311 H 687.09 0.400148 3.70445 0
M  V30 7312 H 687.203 2.20218 4.25489 0
M  V30 7313 H 685.567 1.08395 2.30484 0
M  V30 7314 H 686.35 2.73877 2.06993 0
M  V30 7315 N 688.795 -1.27931 0.920396 0
M  V30 7316 C 689.705 -2.30824 0.419212 0
M  V30 7317 C 690.721 -1.66767 -0.496461 0
M  V30 7318 O 691.897 -1.97763 -0.38104 0
M  V30 7319 C 688.962 -3.45158 -0.326601 0
M  V30 7320 C 688.023 -4.24754 0.623098 0
M  V30 7321 C 687.256 -5.33629 -0.0872172 0
M  V30 7322 O 687.479 -5.55204 -1.30784 0
M  V30 7323 O 686.413 -5.99091 0.580875 0
M  V30 7324 H 690.239 -2.75716 1.27337 0
M  V30 7325 H 687.824 -1.32747 0.685465 0
M  V30 7326 H 689.706 -4.14716 -0.747559 0
M  V30 7327 H 688.381 -3.02336 -1.15648 0
M  V30 7328 H 687.288 -3.57759 1.09359 0
M  V30 7329 H 688.621 -4.71272 1.41998 0
M  V30 7330 N 690.273 -0.685099 -1.4193 0
M  V30 7331 C 691.55 -0.140152 -1.95097 0
M  V30 7332 C 691.93 1.34745 -1.62502 0
M  V30 7333 O 691.278 2.08872 -0.926534 0
M  V30 7334 C 691.488 -0.420268 -3.4646 0
M  V30 7335 C 692.836 -0.342338 -4.23218 0
M  V30 7336 O 693.86 -0.354592 -3.54431 0
M  V30 7337 O 692.719 -0.293404 -5.45712 0
M  V30 7338 H 689.813 -0.00885998 -0.826953 0
M  V30 7339 H 692.359 -0.760539 -1.51703 0
M  V30 7340 H 691.131 -1.45037 -3.63428 0
M  V30 7341 H 690.754 0.231616 -3.96925 0
M  V30 7342 N 691.751 1.51645 -0.429126 0
M  V30 7343 C 692.999 2.01616 0.139802 0
M  V30 7344 C 693.32 1.31568 1.43927 0
M  V30 7345 O 692.59 0.447688 1.90716 0
M  V30 7346 H 691.17 0.744998 0.054654 0
M  V30 7347 H 693.832 1.8638 -0.569952 0
M  V30 7348 H 692.928 3.10439 0.321609 0
M  V30 7349 N 693.229 0.160201 1.56784 0
M  V30 7350 C 694.159 -0.770264 2.2043 0
M  V30 7351 C 695.14 -1.24736 1.15651 0
M  V30 7352 O 696.325 -1.30253 1.44041 0
M  V30 7353 C 693.455 -2.00427 2.83631 0
M  V30 7354 C 692.409 -1.66345 3.94352 0
M  V30 7355 C 691.735 -2.97119 4.4455 0
M  V30 7356 C 693.035 -0.899972 5.14488 0
M  V30 7357 H 694.729 -0.239783 2.98438 0
M  V30 7358 H 692.275 -0.113891 1.43549 0
M  V30 7359 H 694.228 -2.66012 3.26827 0
M  V30 7360 H 692.952 -2.5587 2.02973 0
M  V30 7361 H 691.611 -1.03133 3.51794 0
M  V30 7362 H 691.259 -3.5058 3.60698 0
M  V30 7363 H 690.959 -2.75073 5.19238 0
M  V30 7364 H 692.483 -3.63753 4.90425 0
M  V30 7365 H 693.897 -1.45818 5.54446 0
M  V30 7366 H 692.294 -0.778968 5.95023 0
M  V30 7367 H 693.364 0.105827 4.84785 0
M  V30 7368 N 694.707 -1.5719 -0.113559 0
M  V30 7369 C 695.937 -1.89053 -0.833212 0
M  V30 7370 C 696.345 -0.750139 -1.73694 0
M  V30 7371 O 695.688 0.287808 -1.81431 0
M  V30 7372 C 695.75 -3.15986 -1.71443 0
M  V30 7373 C 695.414 -4.46271 -0.984449 0
M  V30 7374 C 696.411 -5.18897 -0.322741 0
M  V30 7375 C 694.096 -4.92963 -0.964011 0
M  V30 7376 C 696.09 -6.3644 0.349646 0
M  V30 7377 C 693.777 -6.10422 -0.287828 0
M  V30 7378 C 694.775 -6.82009 0.36784 0
M  V30 7379 O 694.463 -7.97233 1.03322 0
M  V30 7380 H 694.195 -0.630225 -0.244526 0
M  V30 7381 H 696.749 -2.05152 -0.100847 0
M  V30 7382 H 694.979 -2.95984 -2.48858 0
M  V30 7383 H 696.668 -3.33826 -2.309 0
M  V30 7384 H 697.434 -4.83875 -0.330114 0
M  V30 7385 H 693.313 -4.37143 -1.46379 0
M  V30 7386 H 696.857 -6.92254 0.861996 0
M  V30 7387 H 692.754 -6.449 -0.278237 0
M  V30 7388 H 693.522 -8.13105 0.938247 0
M  V30 7389 N 696.185 0.383891 -1.52853 0
M  V30 7390 C 697.115 1.47559 -1.80965 0
M  V30 7391 C 698.096 1.5669 -0.661986 0
M  V30 7392 O 699.281 1.71556 -0.910072 0
M  V30 7393 C 696.411 2.85114 -1.98312 0
M  V30 7394 C 695.365 2.9082 -3.14019 0
M  V30 7395 C 694.691 4.30873 -3.16627 0
M  V30 7396 C 695.991 2.60001 -4.52986 0
M  V30 7397 H 697.685 1.24283 -2.72386 0
M  V30 7398 H 695.231 0.596445 -1.31067 0
M  V30 7399 H 697.184 3.61496 -2.16561 0
M  V30 7400 H 695.908 3.09738 -1.03585 0
M  V30 7401 H 694.567 2.16886 -2.9556 0
M  V30 7402 H 694.215 4.52545 -2.19573 0
M  V30 7403 H 693.915 4.3561 -3.94357 0
M  V30 7404 H 695.439 5.09154 -3.37038 0
M  V30 7405 H 696.853 3.261 -4.71521 0
M  V30 7406 H 695.25 2.76081 -5.32822 0
M  V30 7407 H 696.32 1.5532 -4.59351 0
M  V30 7408 N 697.663 1.43903 0.642637 0
M  V30 7409 C 698.912 1.45362 1.39831 0
M  V30 7410 C 699.225 0.0856289 1.95412 0
M  V30 7411 O 700.431 -0.0222856 2.71491 0
M  V30 7412 C 698.887 2.55857 2.53111 0
M  V30 7413 C 698.495 3.98811 2.04092 0
M  V30 7414 C 700.239 2.66524 3.30402 0
M  V30 7415 C 698.146 5.00751 3.14647 0
M  V30 7416 H 697.076 0.540777 0.52543 0
M  V30 7417 H 699.727 1.69929 0.692559 0
M  V30 7418 H 698.109 2.2451 3.26207 0
M  V30 7419 H 699.283 4.3967 1.37938 0
M  V30 7420 H 697.598 3.92284 1.39651 0
M  V30 7421 H 700.195 3.39858 4.12796 0
M  V30 7422 H 700.538 1.71949 3.79129 0
M  V30 7423 H 701.071 2.97224 2.64392 0
M  V30 7424 H 697.81 5.96914 2.70876 0
M  V30 7425 H 697.33 4.64495 3.79479 0
M  V30 7426 H 699.009 5.23933 3.79609 0
M  V30 7427 N 699.141 -0.881989 1.30609 0
M  V30 7428 C 700.091 -1.97539 1.13852 0
M  V30 7429 C 701.075 -1.60813 0.0528428 0
M  V30 7430 O 702.267 -1.74827 0.276484 0
M  V30 7431 C 699.396 -3.32977 0.835519 0
M  V30 7432 C 698.482 -3.76008 1.96159 0
M  V30 7433 N 698.873 -3.91109 3.20729 0
M  V30 7434 C 697.171 -4.05427 1.85863 0
M  V30 7435 C 697.872 -4.27661 3.94311 0
M  V30 7436 N 696.848 -4.37686 3.22385 0
M  V30 7437 H 700.65 -2.07309 2.08327 0
M  V30 7438 H 698.164 -1.072 1.21992 0
M  V30 7439 H 700.161 -4.11041 0.696477 0
M  V30 7440 H 698.821 -3.24542 -0.101135 0
M  V30 7441 H 699.832 -3.7616 3.55984 0
M  V30 7442 H 696.509 -4.05449 0.995847 0
M  V30 7443 H 697.899 -4.47042 5.01601 0
M  V30 7444 N 700.619 -1.13374 -1.09472 0
M  V30 7445 C 701.865 -0.906459 -1.82085 0
M  V30 7446 C 702.22 0.5614 -1.84027 0
M  V30 7447 O 701.513 1.41012 -1.29716 0
M  V30 7448 C 701.707 -1.42759 -3.2765 0
M  V30 7449 C 701.536 -2.94459 -3.39888 0
M  V30 7450 C 700.306 -3.62798 -3.51718 0
M  V30 7451 C 702.504 -3.92398 -3.32457 0
M  V30 7452 N 700.486 -5.02516 -3.52635 0
M  V30 7453 C 701.857 -5.18304 -3.40237 0
M  V30 7454 C 703.912 -3.84671 -3.16122 0
M  V30 7455 C 702.615 -6.37386 -3.33364 0
M  V30 7456 C 704.641 -5.03287 -3.10574 0
M  V30 7457 C 704.003 -6.28055 -3.18945 0
M  V30 7458 H 700.102 -0.385097 -0.680606 0
M  V30 7459 H 702.686 -1.44187 -1.30836 0
M  V30 7460 H 700.857 -0.919102 -3.77369 0
M  V30 7461 H 702.589 -1.14136 -3.88272 0
M  V30 7462 H 699.344 -3.13317 -3.55147 0
M  V30 7463 H 699.768 -5.75421 -3.56679 0
M  V30 7464 H 704.41 -2.89094 -3.0852 0
M  V30 7465 H 702.128 -7.33219 -3.3973 0
M  V30 7466 H 705.714 -4.99047 -2.9907 0
M  V30 7467 H 704.594 -7.18299 -3.14668 0
M  V30 7468 N 702.098 1.27442 -0.927168 0
M  V30 7469 C 703.323 1.99036 -0.583042 0
M  V30 7470 C 703.748 1.68711 0.83176 0
M  V30 7471 O 703.106 0.927081 1.55804 0
M  V30 7472 C 703.154 3.51271 -0.814925 0
M  V30 7473 O 702.258 4.12226 0.119742 0
M  V30 7474 H 701.599 0.624883 -0.224538 0
M  V30 7475 H 704.129 1.62263 -1.24628 0
M  V30 7476 H 704.139 4.01411 -0.730282 0
M  V30 7477 H 702.814 3.72676 -1.84623 0
M  V30 7478 H 701.391 3.72897 -0.0147688 0
M  V30 7479 N 703.576 0.692616 1.41565 0
M  V30 7480 C 704.804 0.231279 2.05603 0
M  V30 7481 C 705.219 -1.11837 1.52111 0
M  V30 7482 O 704.576 -1.6983 0.66813 0
M  V30 7483 C 704.627 0.177125 3.61066 0
M  V30 7484 O 704.348 1.47346 4.12578 0
M  V30 7485 C 705.849 -0.30556 4.42246 0
M  V30 7486 H 703.069 0.108238 0.662213 0
M  V30 7487 H 705.613 0.944369 1.81389 0
M  V30 7488 H 703.768 -0.486769 3.8433 0
M  V30 7489 H 704.182 1.35861 5.06599 0
M  V30 7490 H 705.656 -0.29233 5.51225 0
M  V30 7491 H 706.133 -1.34393 4.18133 0
M  V30 7492 H 706.739 0.327229 4.24039 0
M  V30 7493 N 705.054 -1.51416 0.437162 0
M  V30 7494 C 706.279 -2.0699 -0.130424 0
M  V30 7495 C 706.704 -1.30249 -1.35709 0
M  V30 7496 O 706.062 -0.340388 -1.78076 0
M  V30 7497 C 706.11 -3.5801 -0.43142 0
M  V30 7498 O 705.214 -3.8345 -1.5179 0
M  V30 7499 H 704.555 -0.663997 -0.00194339 0
M  V30 7500 H 707.085 -1.95029 0.618445 0
M  V30 7501 H 707.095 -4.02261 -0.681926 0
M  V30 7502 H 705.77 -4.13291 0.465137 0
M  V30 7503 H 704.347 -3.51062 -1.25737 0
M  V30 7504 N 706.532 -0.168513 -1.56696 0
M  V30 7505 C 707.482 0.7751 -2.14421 0
M  V30 7506 C 708.466 1.19476 -1.07769 0
M  V30 7507 O 709.658 1.15759 -1.33898 0
M  V30 7508 C 706.787 2.00549 -2.7863 0
M  V30 7509 C 705.873 1.60795 -3.92436 0
M  V30 7510 N 706.264 0.919812 -4.97366 0
M  V30 7511 C 704.562 1.89917 -4.03544 0
M  V30 7512 C 705.263 0.724485 -5.77171 0
M  V30 7513 N 704.239 1.26505 -5.28675 0
M  V30 7514 H 708.041 0.240349 -2.92916 0
M  V30 7515 H 705.555 0.0322675 -1.62368 0
M  V30 7516 H 707.552 2.6917 -3.1836 0
M  V30 7517 H 706.212 2.54522 -2.01615 0
M  V30 7518 H 707.223 0.578169 -5.14663 0
M  V30 7519 H 703.9 2.45587 -3.37629 0
M  V30 7520 H 705.29 0.180521 -6.71657 0
M  V30 7521 N 708.01 1.57248 0.105221 0
M  V30 7522 C 709.421 1.74612 0.660865 0
M  V30 7523 C 709.772 0.789231 1.79626 0
M  V30 7524 O 708.897 -0.0346611 2.16372 0
M  V30 7525 C 709.492 3.16624 1.20559 0
M  V30 7526 C 708.051 3.35447 1.7074 0
M  V30 7527 C 707.198 2.70445 0.612764 0
M  V30 7528 H 710.149 1.5824 -0.12079 0
M  V30 7529 H 710.17 3.18937 2.07508 0
M  V30 7530 H 709.682 3.86245 0.379012 0
M  V30 7531 H 707.783 2.7089 2.5583 0
M  V30 7532 H 707.896 4.43702 1.80736 0
M  V30 7533 H 706.26 2.32061 1.04975 0
M  V30 7534 H 707.043 3.42699 -0.203066 0
M  V30 7535 N 709.488 -0.375779 1.53054 0
M  V30 7536 C 710.718 -1.1387 1.72386 0
M  V30 7537 C 711.126 -1.8382 0.447966 0
M  V30 7538 O 710.469 -1.74027 -0.588244 0
M  V30 7539 C 710.531 -2.22047 2.82728 0
M  V30 7540 C 710.195 -1.71951 4.23417 0
M  V30 7541 C 711.192 -1.18909 5.06119 0
M  V30 7542 C 708.877 -1.77773 4.69789 0
M  V30 7543 C 710.871 -0.723529 6.3328 0
M  V30 7544 C 708.558 -1.30829 5.96931 0
M  V30 7545 C 709.556 -0.782077 6.78508 0
M  V30 7546 O 709.244 -0.319529 8.03265 0
M  V30 7547 H 708.976 -0.346835 0.580242 0
M  V30 7548 H 711.53 -0.443748 2.00549 0
M  V30 7549 H 709.76 -2.95006 2.50017 0
M  V30 7550 H 711.449 -2.83654 2.90336 0
M  V30 7551 H 712.215 -1.13758 4.7147 0
M  V30 7552 H 708.094 -2.17673 4.06373 0
M  V30 7553 H 711.638 -0.312126 6.96901 0
M  V30 7554 H 707.535 -1.3567 6.31081 0
M  V30 7555 H 708.303 -0.439796 8.17318 0
M  V30 7556 N 710.966 -1.44241 -0.634997 0
M  V30 7557 C 712.382 -1.28043 -0.952742 0
M  V30 7558 C 712.582 -0.21338 -2.00367 0
M  V30 7559 O 711.638 0.402042 -2.49279 0
M  V30 7560 C 712.951 -2.65076 -1.41968 0
M  V30 7561 C 714.499 -2.72755 -1.53537 0
M  V30 7562 C 714.974 -4.10249 -2.03616 0
M  V30 7563 N 716.465 -4.12406 -2.10892 0
M  V30 7564 C 717.2 -5.15641 -2.50803 0
M  V30 7565 N 716.696 -6.29239 -2.89879 0
M  V30 7566 N 718.489 -5.02995 -2.50903 0
M  V30 7567 H 710.64 -2.12315 0.060098 0
M  V30 7568 H 712.903 -0.947326 -0.0357325 0
M  V30 7569 H 712.609 -3.44213 -0.721804 0
M  V30 7570 H 712.483 -2.91704 -2.39141 0
M  V30 7571 H 714.87 -1.93939 -2.22422 0
M  V30 7572 H 714.951 -2.49872 -0.547496 0
M  V30 7573 H 714.595 -4.8954 -1.35327 0
M  V30 7574 H 714.525 -4.30507 -3.03268 0
M  V30 7575 H 717.016 -3.30417 -1.83393 0
M  V30 7576 H 717.329 -7.03827 -3.19135 0
M  V30 7577 H 715.674 -6.32683 -2.8764 0
M  V30 7578 H 718.865 -4.13306 -2.19763 0
M  V30 7579 H 719.038 -5.83574 -2.81683 0
M  V30 7580 N 712.444 0.87505 -1.31075 0
M  V30 7581 C 713.374 1.99775 -1.20881 0
M  V30 7582 C 714.355 1.69822 -0.0971612 0
M  V30 7583 O 715.54 1.92158 -0.280895 0
M  V30 7584 C 712.67 3.35163 -0.910118 0
M  V30 7585 C 711.624 3.79406 -1.98078 0
M  V30 7586 C 710.95 5.12197 -1.53488 0
M  V30 7587 C 712.25 3.97061 -3.39323 0
M  V30 7588 H 713.944 2.08562 -2.14808 0
M  V30 7589 H 711.49 1.00207 -1.03415 0
M  V30 7590 H 713.443 4.13237 -0.825423 0
M  V30 7591 H 712.167 3.26536 0.064822 0
M  V30 7592 H 710.826 3.03568 -2.05528 0
M  V30 7593 H 710.474 5.00007 -0.547941 0
M  V30 7594 H 710.174 5.4277 -2.2511 0
M  V30 7595 H 711.698 5.92785 -1.46417 0
M  V30 7596 H 713.112 4.65545 -3.34576 0
M  V30 7597 H 711.509 4.39025 -4.09118 0
M  V30 7598 H 712.579 3.00601 -3.80483 0
M  V30 7599 N 713.922 1.13953 1.08869 0
M  V30 7600 C 715.171 0.899431 1.80536 0
M  V30 7601 C 715.484 -0.575781 1.86933 0
M  V30 7602 O 716.69 -0.932988 2.54966 0
M  V30 7603 C 715.146 1.55963 3.24351 0
M  V30 7604 C 714.754 3.07077 3.26202 0
M  V30 7605 C 716.498 1.40046 4.00733 0
M  V30 7606 C 714.405 3.65955 4.64576 0
M  V30 7607 H 713.335 0.332849 0.676556 0
M  V30 7608 H 715.986 1.3679 1.22314 0
M  V30 7609 H 714.368 1.01883 3.82669 0
M  V30 7610 H 715.542 3.67785 2.77617 0
M  V30 7611 H 713.857 3.22576 2.63312 0
M  V30 7612 H 716.454 1.81441 5.02974 0
M  V30 7613 H 716.797 0.345993 4.1486 0
M  V30 7614 H 717.33 1.91137 3.48872 0
M  V30 7615 H 714.069 4.71234 4.55652 0
M  V30 7616 H 713.589 3.10027 5.13462 0
M  V30 7617 H 715.268 3.65968 5.33551 0
M  V30 7618 N 715.4 -1.26948 0.933913 0
M  V30 7619 C 716.33 -2.29017 0.45534 0
M  V30 7620 C 717.311 -1.62961 -0.487605 0
M  V30 7621 O 718.496 -1.90223 -0.391022 0
M  V30 7622 C 715.626 -3.46112 -0.287015 0
M  V30 7623 C 714.58 -4.24205 0.568682 0
M  V30 7624 C 713.906 -5.3384 -0.303206 0
M  V30 7625 C 715.206 -4.88954 1.83633 0
M  V30 7626 H 716.9 -2.69298 1.30839 0
M  V30 7627 H 714.446 -1.29459 0.630579 0
M  V30 7628 H 716.399 -4.16622 -0.6328 0
M  V30 7629 H 715.123 -3.04765 -1.17414 0
M  V30 7630 H 713.782 -3.5545 0.897261 0
M  V30 7631 H 713.43 -4.88734 -1.18947 0
M  V30 7632 H 713.13 -5.86998 0.265879 0
M  V30 7633 H 714.654 -6.0719 -0.644423 0
M  V30 7634 H 716.068 -5.51717 1.55823 0
M  V30 7635 H 714.465 -5.52198 2.34941 0
M  V30 7636 H 715.535 -4.12305 2.55211 0
M  V30 7637 N 716.879 -0.700114 -1.41195 0
M  V30 7638 C 718.107 -0.242179 -2.05478 0
M  V30 7639 C 718.522 1.11029 -1.52702 0
M  V30 7640 O 717.879 1.69473 -0.677127 0
M  V30 7641 C 717.93 -0.196271 -3.60967 0
M  V30 7642 O 717.651 -1.49532 -4.11791 0
M  V30 7643 C 719.152 0.282102 -4.42401 0
M  V30 7644 H 716.372 -0.111749 -0.661629 0
M  V30 7645 H 718.916 -0.953975 -1.80885 0
M  V30 7646 H 717.071 0.46638 -3.84582 0
M  V30 7647 H 717.485 -1.38545 -5.05871 0
M  V30 7648 H 718.959 0.263093 -5.51373 0
M  V30 7649 H 719.436 1.32174 -4.1884 0
M  V30 7650 H 720.042 -0.349712 -4.2386 0
M  V30 7651 N 718.357 1.51182 -0.445186 0
M  V30 7652 C 719.603 2.02452 0.11882 0
M  V30 7653 C 719.936 1.32824 1.41673 0
M  V30 7654 O 719.211 0.445637 1.89326 0
M  V30 7655 C 719.494 3.5859 0.329475 0
M  V30 7656 C 719.347 4.38823 -0.987638 0
M  V30 7657 C 720.666 4.26241 1.09575 0
M  V30 7658 H 717.785 0.735819 0.0417092 0
M  V30 7659 H 720.427 1.80747 -0.585718 0
M  V30 7660 H 718.577 3.77214 0.9296 0
M  V30 7661 H 720.249 4.3183 -1.62235 0
M  V30 7662 H 718.492 4.03594 -1.59041 0
M  V30 7663 H 719.163 5.46257 -0.794192 0
M  V30 7664 H 721.639 4.11934 0.587328 0
M  V30 7665 H 720.515 5.35354 1.21191 0
M  V30 7666 H 720.776 3.87635 2.12584 0
M  V30 7667 N 719.835 0.176821 1.56605 0
M  V30 7668 C 720.798 -0.737429 2.17013 0
M  V30 7669 C 721.798 -1.15414 1.11965 0
M  V30 7670 O 722.988 -1.0702 1.37449 0
M  V30 7671 C 720.12 -2.00445 2.75744 0
M  V30 7672 H 721.313 -0.211455 2.99154 0
M  V30 7673 H 718.866 -0.0727582 1.56131 0
M  V30 7674 H 719.601 -2.57338 1.97352 0
M  V30 7675 H 719.386 -1.71456 3.52626 0
M  V30 7676 H 720.876 -2.65679 3.22187 0
M  V30 7677 N 721.313 -1.57302 -0.09688 0
M  V30 7678 C 722.245 -1.98618 -1.14384 0
M  V30 7679 C 723.258 -0.888483 -1.36418 0
M  V30 7680 O 724.447 -1.16661 -1.35101 0
M  V30 7681 C 721.547 -2.28838 -2.49973 0
M  V30 7682 C 720.72 -3.60132 -2.48241 0
M  V30 7683 C 719.779 -3.7831 -3.65743 0
M  V30 7684 O 718.805 -4.50183 -3.48316 0
M  V30 7685 N 720.007 -3.18752 -4.85157 0
M  V30 7686 H 722.772 -2.8904 -0.792202 0
M  V30 7687 H 720.333 -1.59356 -0.285883 0
M  V30 7688 H 722.325 -2.38193 -3.27179 0
M  V30 7689 H 720.895 -1.44431 -2.77233 0
M  V30 7690 H 720.115 -3.61763 -1.56593 0
M  V30 7691 H 721.403 -4.46389 -2.4416 0
M  V30 7692 H 720.801 -2.60368 -5.0222 0
M  V30 7693 H 719.358 -3.33595 -5.59962 0
M  V30 7694 N 722.791 0.367657 -1.53252 0
M  V30 7695 C 724.207 0.709191 -1.42978 0
M  V30 7696 C 724.407 1.93352 -0.567193 0
M  V30 7697 O 723.463 2.52453 -0.0488349 0
M  V30 7698 C 724.776 0.924338 -2.86141 0
M  V30 7699 C 726.324 1.02448 -2.95759 0
M  V30 7700 C 726.799 1.27211 -4.39979 0
M  V30 7701 N 728.29 1.33986 -4.43398 0
M  V30 7702 C 729.025 1.54852 -5.52095 0
M  V30 7703 N 728.521 1.73049 -6.7084 0
M  V30 7704 N 730.314 1.57205 -5.39669 0
M  V30 7705 H 722.465 -0.437669 -2.07842 0
M  V30 7706 H 724.728 -0.133737 -0.938519 0
M  V30 7707 H 724.434 0.0965455 -3.51567 0
M  V30 7708 H 724.308 1.83302 -3.29667 0
M  V30 7709 H 726.695 1.84282 -2.30487 0
M  V30 7710 H 726.776 0.0932301 -2.5563 0
M  V30 7711 H 726.42 0.458792 -5.05824 0
M  V30 7712 H 726.35 2.21654 -4.77679 0
M  V30 7713 H 728.841 1.21545 -3.5782 0
M  V30 7714 H 729.154 1.88538 -7.49449 0
M  V30 7715 H 727.499 1.70231 -6.7383 0
M  V30 7716 H 730.69 1.42555 -4.45865 0
M  V30 7717 H 730.863 1.73126 -6.24445 0
M  V30 7718 N 724.269 1.44576 0.627338 0
M  V30 7719 C 725.494 1.51271 1.41887 0
M  V30 7720 C 725.919 0.139814 1.8758 0
M  V30 7721 O 725.277 -0.871746 1.58966 0
M  V30 7722 C 725.325 2.48529 2.61277 0
M  V30 7723 O 724.429 1.98944 3.61241 0
M  V30 7724 H 723.77 0.510668 0.424399 0
M  V30 7725 H 726.3 1.89746 0.765356 0
M  V30 7726 H 726.31 2.66689 3.08773 0
M  V30 7727 H 724.985 3.48249 2.27366 0
M  V30 7728 H 723.562 1.90568 3.20528 0
M  V30 7729 N 725.747 -0.868086 1.31537 0
M  V30 7730 C 726.679 -1.98165 1.15166 0
M  V30 7731 C 727.692 -1.6255 0.0902335 0
M  V30 7732 O 728.881 -1.75272 0.33791 0
M  V30 7733 C 725.981 -3.30772 0.737776 0
M  V30 7734 C 725.154 -3.94716 1.88462 0
M  V30 7735 C 724.213 -5.05641 1.45648 0
M  V30 7736 O 723.239 -5.2636 2.16642 0
M  V30 7737 N 724.441 -5.79474 0.34493 0
M  V30 7738 H 727.206 -2.12754 2.11083 0
M  V30 7739 H 724.767 -1.04217 1.23897 0
M  V30 7740 H 726.759 -4.02366 0.434032 0
M  V30 7741 H 725.329 -3.1233 -0.129834 0
M  V30 7742 H 724.549 -3.16079 2.35558 0
M  V30 7743 H 725.837 -4.34175 2.65273 0
M  V30 7744 H 725.235 -5.65164 -0.246259 0
M  V30 7745 H 723.792 -6.51722 0.100728 0
M  V30 7746 N 727.225 -1.14528 -1.08264 0
M  V30 7747 C 728.188 -0.83632 -2.13397 0
M  V30 7748 C 729.188 0.159715 -1.60005 0
M  V30 7749 O 730.378 -0.0688098 -1.74064 0
M  V30 7750 C 727.51 -0.246973 -3.40004 0
M  V30 7751 H 728.703 -1.76808 -2.42237 0
M  V30 7752 H 726.256 -0.951509 -1.24 0
M  V30 7753 H 726.991 0.693436 -3.168 0
M  V30 7754 H 726.776 -0.964412 -3.80055 0
M  V30 7755 H 728.266 -0.0480679 -4.17572 0
M  V30 7756 N 728.703 1.26451 -0.940633 0
M  V30 7757 C 730.114 1.75726 -0.630653 0
M  V30 7758 C 730.465 1.76631 0.854167 0
M  V30 7759 O 729.59 1.37807 1.66848 0
M  V30 7760 C 730.185 3.19114 -1.13805 0
M  V30 7761 C 728.744 3.66005 -0.878497 0
M  V30 7762 C 727.891 2.45505 -1.28928 0
M  V30 7763 H 730.842 1.12535 -1.119 0
M  V30 7764 H 730.863 3.77311 -0.491625 0
M  V30 7765 H 730.375 3.18424 -2.21874 0
M  V30 7766 H 728.476 3.72126 0.187833 0
M  V30 7767 H 728.589 4.54844 -1.50512 0
M  V30 7768 H 726.953 2.4467 -0.707713 0
M  V30 7769 H 727.736 2.47516 -2.37888 0
M  V30 7770 N 730.181 0.707592 1.40822 0
M  V30 7771 C 731.458 0.171172 1.9485 0
M  V30 7772 C 731.838 -1.32143 1.64625 0
M  V30 7773 O 731.186 -2.07372 0.959647 0
M  V30 7774 C 731.396 0.475334 3.45748 0
M  V30 7775 C 732.744 0.409625 4.22619 0
M  V30 7776 O 733.768 0.410934 3.53822 0
M  V30 7777 O 732.627 0.380185 5.45176 0
M  V30 7778 H 729.721 0.022015 0.826707 0
M  V30 7779 H 732.267 0.784577 1.50474 0
M  V30 7780 H 731.039 1.50801 3.61075 0
M  V30 7781 H 730.662 -0.168439 3.97243 0
M  V30 7782 N 731.66 -1.50943 0.453197 0
M  V30 7783 C 732.908 -2.01813 -0.107709 0
M  V30 7784 C 733.229 -1.33841 -1.41816 0
M  V30 7785 O 732.499 -0.477973 -1.8998 0
M  V30 7786 H 731.079 -0.745773 -0.0427948 0
M  V30 7787 H 733.741 -1.8545 0.599531 0
M  V30 7788 H 732.837 -3.10911 -0.27218 0
M  V30 7789 N 733.138 -0.185124 -1.56509 0
M  V30 7790 C 734.071 0.77877 -2.145 0
M  V30 7791 C 735.049 1.21649 -1.07891 0
M  V30 7792 O 736.233 1.30579 -1.35946 0
M  V30 7793 C 733.36 2.05048 -2.69579 0
M  V30 7794 C 732.406 1.75569 -3.88687 0
M  V30 7795 S 733.239 0.912642 -5.27666 0
M  V30 7796 C 734.395 2.19471 -5.8616 0
M  V30 7797 H 734.628 0.285751 -2.95924 0
M  V30 7798 H 732.161 0.0297417 -1.54371 0
M  V30 7799 H 734.119 2.78085 -3.01958 0
M  V30 7800 H 732.78 2.51462 -1.88216 0
M  V30 7801 H 731.973 2.69962 -4.25601 0
M  V30 7802 H 731.575 1.10619 -3.57267 0
M  V30 7803 H 733.867 3.14815 -5.99915 0
M  V30 7804 H 734.81 1.87005 -6.8296 0
M  V30 7805 H 735.218 2.31862 -5.14685 0
M  V30 7806 N 734.616 1.57351 0.0885366 0
M  V30 7807 C 735.548 1.99221 1.13329 0
M  V30 7808 C 736.561 0.895705 1.35945 0
M  V30 7809 O 737.75 1.17376 1.34481 0
M  V30 7810 C 734.85 2.3016 2.48756 0
M  V30 7811 C 734.023 3.61444 2.46327 0
M  V30 7812 C 733.082 3.80244 3.63732 0
M  V30 7813 O 732.108 4.52024 3.45924 0
M  V30 7814 N 733.31 3.2132 4.8346 0
M  V30 7815 H 736.075 2.89456 0.776862 0
M  V30 7816 H 733.636 1.59505 0.277428 0
M  V30 7817 H 735.628 2.39925 3.25911 0
M  V30 7818 H 734.198 1.459 2.76464 0
M  V30 7819 H 733.418 3.62588 1.54673 0
M  V30 7820 H 734.706 4.47678 2.41789 0
M  V30 7821 H 734.104 2.63028 5.00832 0
M  V30 7822 H 732.661 3.3656 5.58185 0
M  V30 7823 N 736.094 -0.359525 1.53444 0
M  V30 7824 C 737.319 -1.12644 1.74144 0
M  V30 7825 C 737.744 -1.82082 0.472007 0
M  V30 7826 O 737.102 -1.71962 -0.57436 0
M  V30 7827 C 737.15 -2.12781 2.9113 0
M  V30 7828 O 736.254 -3.19984 2.60162 0
M  V30 7829 H 735.595 -0.326553 0.578152 0
M  V30 7830 H 738.125 -0.414798 2.00351 0
M  V30 7831 H 738.135 -2.56278 3.17467 0
M  V30 7832 H 736.81 -1.61634 3.83207 0
M  V30 7833 H 735.387 -2.81417 2.44661 0
M  V30 7834 N 737.572 -1.44907 -0.619662 0
M  V30 7835 C 738.502 -1.55488 -1.742 0
M  V30 7836 C 739.483 -0.407143 -1.65156 0
M  V30 7837 O 740.668 -0.628743 -1.8374 0
M  V30 7838 C 737.798 -1.5097 -3.1277 0
M  V30 7839 C 736.752 -2.64337 -3.36615 0
M  V30 7840 C 736.078 -2.44872 -4.75333 0
M  V30 7841 C 737.378 -4.06423 -3.28051 0
M  V30 7842 H 739.072 -2.49432 -1.65602 0
M  V30 7843 H 736.618 -1.20047 -0.795281 0
M  V30 7844 H 738.571 -1.56971 -3.91073 0
M  V30 7845 H 737.295 -0.535486 -3.2218 0
M  V30 7846 H 735.954 -2.57744 -2.60698 0
M  V30 7847 H 735.602 -1.45617 -4.81461 0
M  V30 7848 H 735.302 -3.20888 -4.92244 0
M  V30 7849 H 736.826 -2.52709 -5.55851 0
M  V30 7850 H 738.24 -4.14324 -3.96243 0
M  V30 7851 H 736.637 -4.82733 -3.56495 0
M  V30 7852 H 737.707 -4.29183 -2.25676 0
M  V30 7853 N 739.05 0.861098 -1.31996 0
M  V30 7854 C 740.466 1.14827 -1.10846 0
M  V30 7855 C 740.666 2.0117 0.11528 0
M  V30 7856 O 739.722 2.39423 0.802048 0
M  V30 7857 C 741.035 1.83183 -2.38462 0
M  V30 7858 C 742.583 1.95847 -2.44158 0
M  V30 7859 C 743.058 2.67617 -3.71679 0
M  V30 7860 N 744.549 2.75147 -3.72624 0
M  V30 7861 C 745.284 3.31314 -4.67994 0
M  V30 7862 N 744.78 3.88343 -5.73726 0
M  V30 7863 N 746.573 3.29356 -4.55501 0
M  V30 7864 H 738.724 0.285951 -2.10466 0
M  V30 7865 H 740.987 0.189303 -0.928907 0
M  V30 7866 H 740.693 1.27193 -3.27895 0
M  V30 7867 H 740.567 2.83393 -2.48935 0
M  V30 7868 H 742.954 2.50999 -1.55189 0
M  V30 7869 H 743.035 0.94653 -2.37644 0
M  V30 7870 H 742.679 2.13131 -4.61018 0
M  V30 7871 H 742.609 3.69237 -3.75462 0
M  V30 7872 H 745.1 2.34682 -2.96197 0
M  V30 7873 H 745.413 4.29338 -6.42564 0
M  V30 7874 H 743.758 3.86693 -5.77489 0
M  V30 7875 H 746.949 2.84047 -3.72069 0
M  V30 7876 H 747.122 3.7283 -5.30001 0
M  V30 7877 N 740.528 1.15101 1.07655 0
M  V30 7878 C 741.458 0.867864 2.16773 0
M  V30 7879 C 742.439 -0.180283 1.69142 0
M  V30 7880 O 743.624 -0.0353152 1.94168 0
M  V30 7881 C 740.754 0.35299 3.45501 0
M  V30 7882 C 739.708 1.33746 4.06566 0
M  V30 7883 C 739.034 0.681562 5.30338 0
M  V30 7884 C 740.334 2.7024 4.46954 0
M  V30 7885 H 742.028 1.78034 2.40716 0
M  V30 7886 H 739.574 0.857435 1.15689 0
M  V30 7887 H 741.527 0.142465 4.21159 0
M  V30 7888 H 740.251 -0.594945 3.21135 0
M  V30 7889 H 738.91 1.53429 3.32949 0
M  V30 7890 H 738.558 -0.272422 5.02262 0
M  V30 7891 H 738.258 1.33853 5.72151 0
M  V30 7892 H 739.782 0.48074 6.08705 0
M  V30 7893 H 741.196 2.5442 5.13754 0
M  V30 7894 H 739.593 3.32282 4.99709 0
M  V30 7895 H 740.663 3.26537 3.58471 0
M  V30 7896 N 742.006 -1.2595 0.947325 0
M  V30 7897 C 743.422 -1.45737 0.650597 0
M  V30 7898 C 743.622 -1.85189 -0.794188 0
M  V30 7899 O 742.678 -1.97738 -1.57022 0
M  V30 7900 C 743.991 -2.53505 1.61728 0
M  V30 7901 C 745.539 -2.67351 1.62765 0
M  V30 7902 C 746.014 -3.78296 2.58179 0
M  V30 7903 N 747.505 -3.85696 2.56501 0
M  V30 7904 C 748.24 -4.71012 3.2701 0
M  V30 7905 N 747.736 -5.60669 4.06966 0
M  V30 7906 N 749.529 -4.64912 3.15932 0
M  V30 7907 H 741.68 -0.986327 1.8811 0
M  V30 7908 H 743.943 -0.494639 0.808725 0
M  V30 7909 H 743.649 -2.31357 2.6489 0
M  V30 7910 H 743.523 -3.51281 1.3741 0
M  V30 7911 H 745.91 -2.88869 0.603241 0
M  V30 7912 H 745.991 -1.69998 1.91139 0
M  V30 7913 H 745.635 -3.5753 3.60742 0
M  V30 7914 H 745.565 -4.75117 2.27093 0
M  V30 7915 H 748.056 -3.21601 1.98447 0
M  V30 7916 H 748.369 -6.22677 4.57704 0
M  V30 7917 H 746.714 -5.60402 4.11066 0
M  V30 7918 H 749.905 -3.93874 2.52945 0
M  V30 7919 H 750.078 -5.3118 3.71149 0
M  V30 7920 N 743.484 -0.715051 -1.40445 0
M  V30 7921 C 744.431 -0.0621393 -2.30716 0
M  V30 7922 C 745.401 0.750871 -1.48159 0
M  V30 7923 O 746.586 0.714928 -1.76899 0
M  V30 7924 C 743.726 0.854036 -3.34365 0
M  V30 7925 C 742.839 0.0305565 -4.31989 0
M  V30 7926 C 741.974 0.946162 -5.22706 0
M  V30 7927 C 741.013 0.116741 -6.11989 0
M  V30 7928 N 740.15 0.987194 -6.95125 0
M  V30 7929 H 744.99 -0.83764 -2.85985 0
M  V30 7930 H 742.527 -0.424759 -1.40834 0
M  V30 7931 H 744.485 1.39946 -3.93028 0
M  V30 7932 H 743.115 1.59572 -2.806 0
M  V30 7933 H 742.167 -0.632044 -3.75112 0
M  V30 7934 H 743.479 -0.611615 -4.95036 0
M  V30 7935 H 742.633 1.56014 -5.86297 0
M  V30 7936 H 741.372 1.62216 -4.59932 0
M  V30 7937 H 740.377 -0.510176 -5.47428 0
M  V30 7938 H 741.602 -0.555742 -6.76822 0
M  V30 7939 H 739.548 1.64885 -6.3494 0
M  V30 7940 H 739.465 0.401046 -7.54936 0
M  V30 7941 H 740.733 1.58737 -7.63166 0
M  V30 7942 N 744.962 1.50701 -0.461195 0
M  V30 7943 C 746.209 2.02267 0.0971971 0
M  V30 7944 C 746.537 1.34387 1.40608 0
M  V30 7945 O 745.792 0.455254 1.90331 0
M  V30 7946 C 746.091 3.55788 0.33908 0
M  V30 7947 C 745.757 4.42092 -0.886885 0
M  V30 7948 C 744.419 4.65398 -1.22304 0
M  V30 7949 C 746.771 4.92571 -1.70361 0
M  V30 7950 C 744.099 5.36429 -2.37616 0
M  V30 7951 C 746.451 5.64868 -2.84793 0
M  V30 7952 C 745.115 5.86431 -3.18834 0
M  V30 7953 H 744.385 0.740146 0.0355669 0
M  V30 7954 H 747.032 1.81415 -0.61326 0
M  V30 7955 H 745.337 3.751 1.13168 0
M  V30 7956 H 747.034 3.93243 0.784937 0
M  V30 7957 H 743.624 4.24165 -0.614981 0
M  V30 7958 H 747.808 4.74428 -1.4571 0
M  V30 7959 H 743.064 5.51333 -2.64276 0
M  V30 7960 H 747.238 6.02966 -3.48432 0
M  V30 7961 H 744.865 6.41248 -4.08296 0
M  V30 7962 N 746.441 0.193421 1.56409 0
M  V30 7963 C 747.852 -0.319471 1.83946 0
M  V30 7964 C 748.203 -1.61505 1.11403 0
M  V30 7965 O 747.328 -2.13139 0.374289 0
M  V30 7966 C 747.923 -0.586411 3.33686 0
M  V30 7967 C 746.482 -1.04368 3.61641 0
M  V30 7968 C 745.629 -0.0913834 2.77149 0
M  V30 7969 H 748.58 0.417242 1.53117 0
M  V30 7970 H 748.601 -1.43591 3.52366 0
M  V30 7971 H 748.113 0.356701 3.86457 0
M  V30 7972 H 746.214 -2.00113 3.14302 0
M  V30 7973 H 746.327 -0.937549 4.69837 0
M  V30 7974 H 744.691 -0.592954 2.47702 0
M  V30 7975 H 745.474 0.846142 3.32709 0
M  V30 7976 N 747.919 -1.57396 -0.0801906 0
M  V30 7977 C 749.168 -1.8602 -0.779702 0
M  V30 7978 C 749.481 -0.784864 -1.79163 0
M  V30 7979 O 750.687 -0.958691 -2.54011 0
M  V30 7980 C 749.143 -3.29942 -1.43758 0
M  V30 7981 C 748.751 -4.45584 -0.464654 0
M  V30 7982 C 750.495 -3.67775 -2.11995 0
M  V30 7983 C 748.402 -5.80544 -1.12797 0
M  V30 7984 H 747.332 -0.69392 -0.294943 0
M  V30 7985 H 749.983 -1.83471 -0.0328527 0
M  V30 7986 H 748.365 -3.27078 -2.2324 0
M  V30 7987 H 749.539 -4.59824 0.299749 0
M  V30 7988 H 747.854 -4.16247 0.112813 0
M  V30 7989 H 750.451 -4.65896 -2.62383 0
M  V30 7990 H 750.794 -2.9715 -2.91561 0
M  V30 7991 H 751.327 -3.72593 -1.39354 0
M  V30 7992 H 748.066 -6.54439 -0.372807 0
M  V30 7993 H 747.586 -5.70119 -1.86344 0
M  V30 7994 H 749.265 -6.25602 -1.6502 0
M  V30 7995 N 749.397 0.351382 -1.53633 0
M  V30 7996 C 750.307 1.45471 -1.84052 0
M  V30 7997 C 751.323 1.57945 -0.730015 0
M  V30 7998 O 752.499 1.73571 -1.02153 0
M  V30 7999 C 749.564 2.80562 -2.03681 0
M  V30 8000 C 748.625 2.77497 -3.27558 0
M  V30 8001 C 747.858 4.06144 -3.46241 0
M  V30 8002 O 748.081 5.03028 -2.68922 0
M  V30 8003 O 747.015 4.11092 -4.39645 0
M  V30 8004 H 750.841 1.22684 -2.77817 0
M  V30 8005 H 748.426 0.542827 -1.3919 0
M  V30 8006 H 750.308 3.6058 -2.18082 0
M  V30 8007 H 748.983 3.03296 -1.13106 0
M  V30 8008 H 747.89 1.96126 -3.18568 0
M  V30 8009 H 749.223 2.59716 -4.18101 0
M  V30 8010 N 750.875 1.45233 0.611969 0
M  V30 8011 C 751.807 1.49575 1.73666 0
M  V30 8012 C 752.82 0.386987 1.58134 0
M  V30 8013 O 754.009 0.653804 1.66095 0
M  V30 8014 C 751.109 1.33223 3.11617 0
M  V30 8015 C 750.282 2.57694 3.5343 0
M  V30 8016 C 749.341 2.35962 4.70328 0
M  V30 8017 O 748.367 3.09553 4.77667 0
M  V30 8018 N 749.569 1.40243 5.63305 0
M  V30 8019 H 752.334 2.46539 1.70407 0
M  V30 8020 H 749.895 1.40917 0.79712 0
M  V30 8021 H 751.887 1.16502 3.87569 0
M  V30 8022 H 750.457 0.44551 3.09409 0
M  V30 8023 H 749.677 2.8956 2.67486 0
M  V30 8024 H 750.965 3.40441 3.78124 0
M  V30 8025 H 750.363 0.795023 5.60086 0
M  V30 8026 H 748.92 1.29496 6.38807 0
M  V30 8027 N 752.353 -0.854086 1.3245 0
M  V30 8028 C 753.285 -1.96932 1.17262 0
M  V30 8029 C 754.298 -1.62445 0.107469 0
M  V30 8030 O 755.487 -1.74904 0.356481 0
M  V30 8031 C 752.587 -3.29971 0.772817 0
M  V30 8032 C 751.76 -3.92695 1.92638 0
M  V30 8033 C 750.819 -5.04068 1.51003 0
M  V30 8034 O 749.845 -5.24032 2.22213 0
M  V30 8035 N 751.047 -5.79076 0.406371 0
M  V30 8036 H 753.812 -2.10503 2.13327 0
M  V30 8037 H 751.373 -1.02897 1.24995 0
M  V30 8038 H 753.365 -4.01883 0.476684 0
M  V30 8039 H 751.935 -3.1245 -0.0967 0
M  V30 8040 H 751.155 -3.13563 2.38897 0
M  V30 8041 H 752.443 -4.31337 2.69863 0
M  V30 8042 H 751.841 -5.65393 -0.186302 0
M  V30 8043 H 750.398 -6.51579 0.169846 0
M  V30 8044 N 753.831 -1.1567 -1.07043 0
M  V30 8045 C 755.108 -0.843948 -1.76456 0
M  V30 8046 C 755.488 0.659806 -2.00524 0
M  V30 8047 O 754.836 1.60518 -1.62623 0
M  V30 8048 C 755.046 -1.65822 -3.0709 0
M  V30 8049 C 756.394 -1.8664 -3.8138 0
M  V30 8050 O 757.418 -1.62624 -3.1691 0
M  V30 8051 O 756.277 -2.26884 -4.97178 0
M  V30 8052 H 753.371 -0.310677 -0.766426 0
M  V30 8053 H 755.917 -1.26266 -1.1338 0
M  V30 8054 H 754.689 -2.67902 -2.85209 0
M  V30 8055 H 754.312 -1.23605 -3.77899 0
M  V30 8056 N 755.309 1.25446 -0.953992 0
M  V30 8057 C 756.557 1.92762 -0.607227 0
M  V30 8058 C 756.878 1.7509 0.858399 0
M  V30 8059 O 756.148 1.11416 1.61132 0
M  V30 8060 H 754.728 0.713377 -0.221591 0
M  V30 8061 H 757.39 1.52625 -1.21209 0
M  V30 8062 H 756.486 3.00695 -0.835998 0
M  V30 8063 N 756.787 0.722489 1.40064 0
M  V30 8064 C 757.75 0.0830209 2.2905 0
M  V30 8065 C 758.75 -0.680208 1.45705 0
M  V30 8066 O 759.94 -0.511084 1.66534 0
M  V30 8067 C 757.072 -0.892092 3.29021 0
M  V30 8068 H 758.265 0.866848 2.87099 0
M  V30 8069 H 755.818 0.487556 1.48501 0
M  V30 8070 H 756.553 -1.70273 2.76003 0
M  V30 8071 H 756.338 -0.34761 3.90556 0
M  V30 8072 H 757.828 -1.33648 3.95636 0
M  V30 8073 N 758.265 -1.50454 0.469181 0
M  V30 8074 C 759.512 -2.02315 -0.086469 0
M  V30 8075 C 759.84 -1.3513 -1.39893 0
M  V30 8076 O 759.095 -0.465341 -1.90087 0
M  V30 8077 C 759.394 -3.55963 -0.320207 0
M  V30 8078 C 759.06 -4.41615 0.910318 0
M  V30 8079 C 757.722 -4.64743 1.2477 0
M  V30 8080 C 760.074 -4.91661 1.72971 0
M  V30 8081 C 757.402 -5.35161 2.40457 0
M  V30 8082 C 759.754 -5.6335 2.87785 0
M  V30 8083 C 758.418 -5.84732 3.2194 0
M  V30 8084 H 757.688 -0.740324 -0.0316412 0
M  V30 8085 H 760.335 -1.81087 0.622872 0
M  V30 8086 H 758.64 -3.75695 -1.11177 0
M  V30 8087 H 760.337 -3.93653 -0.764071 0
M  V30 8088 H 756.927 -4.23833 0.637467 0
M  V30 8089 H 761.111 -4.73649 1.48224 0
M  V30 8090 H 756.367 -5.49924 2.67196 0
M  V30 8091 H 760.541 -6.0111 3.51624 0
M  V30 8092 H 758.168 -6.39074 4.1169 0
M  V30 8093 N 759.743 -0.201713 -1.56304 0
M  V30 8094 C 760.989 0.435952 -1.98059 0
M  V30 8095 C 761.322 1.60811 -1.08873 0
M  V30 8096 O 760.597 1.9398 -0.142128 0
M  V30 8097 C 760.88 0.889706 -3.48936 0
M  V30 8098 C 760.733 -0.284725 -4.48898 0
M  V30 8099 C 762.052 1.7529 -4.03685 0
M  V30 8100 H 759.171 0.15699 -0.720085 0
M  V30 8101 H 761.813 -0.293965 -1.87712 0
M  V30 8102 H 759.963 1.51166 -3.57884 0
M  V30 8103 H 761.635 -0.922531 -4.51981 0
M  V30 8104 H 759.878 -0.935427 -4.23594 0
M  V30 8105 H 760.549 0.0753865 -5.51949 0
M  V30 8106 H 763.025 1.2283 -3.97558 0
M  V30 8107 H 761.901 2.03933 -5.0961 0
M  V30 8108 H 762.162 2.70939 -3.49348 0
M  V30 8109 N 761.222 1.57436 0.0718424 0
M  V30 8110 C 762.152 2.06724 1.08571 0
M  V30 8111 C 763.133 0.960731 1.40371 0
M  V30 8112 O 764.318 1.23345 1.49999 0
M  V30 8113 C 761.448 2.51112 2.39916 0
M  V30 8114 C 760.402 3.65639 2.22469 0
M  V30 8115 C 759.728 3.96082 3.59198 0
M  V30 8116 C 761.028 4.95687 1.64596 0
M  V30 8117 H 762.722 2.91679 0.675569 0
M  V30 8118 H 760.268 1.40319 0.32352 0
M  V30 8119 H 762.221 2.84206 3.11135 0
M  V30 8120 H 760.945 1.63186 2.8291 0
M  V30 8121 H 759.604 3.32828 1.53691 0
M  V30 8122 H 759.252 3.05287 3.99761 0
M  V30 8123 H 758.952 4.73199 3.48362 0
M  V30 8124 H 760.476 4.31672 4.31847 0
M  V30 8125 H 761.89 5.27011 2.25681 0
M  V30 8126 H 760.287 5.77126 1.64457 0
M  V30 8127 H 761.357 4.8108 0.60744 0
M  V30 8128 N 762.7 -0.34323 1.53817 0
M  V30 8129 C 763.61 -1.44493 1.84821 0
M  V30 8130 C 764.626 -1.57556 0.738381 0
M  V30 8131 O 765.802 -1.73026 1.03072 0
M  V30 8132 C 762.867 -2.79478 2.05166 0
M  V30 8133 C 761.928 -2.75756 3.29025 0
M  V30 8134 C 761.161 -4.04302 3.4839 0
M  V30 8135 O 761.384 -5.01595 2.71586 0
M  V30 8136 O 760.318 -4.08754 4.41819 0
M  V30 8137 H 764.144 -1.21209 2.78464 0
M  V30 8138 H 761.729 -0.535437 1.39476 0
M  V30 8139 H 763.611 -3.59419 2.19991 0
M  V30 8140 H 762.286 -3.02692 1.14713 0
M  V30 8141 H 761.193 -1.94434 3.19603 0
M  V30 8142 H 762.526 -2.57495 4.19472 0
M  V30 8143 N 764.178 -1.45556 -0.604258 0
M  V30 8144 C 765.426 -1.4945 -1.36048 0
M  V30 8145 C 765.747 -0.138933 -1.94504 0
M  V30 8146 O 765.017 0.832097 -1.7735 0
M  V30 8147 H 763.597 -0.550381 -0.505064 0
M  V30 8148 H 766.259 -1.81535 -0.709308 0
M  V30 8149 H 765.355 -2.23519 -2.17821 0
M  V30 8150 N 765.656 0.84705 -1.32902 0
M  V30 8151 C 766.902 1.60389 -1.25088 0
M  V30 8152 C 767.257 1.91521 0.183723 0
M  V30 8153 O 766.55 1.55197 1.12359 0
M  V30 8154 C 766.744 2.92663 -2.05142 0
M  V30 8155 C 766.573 2.74449 -3.56241 0
M  V30 8156 C 765.343 2.72434 -4.25567 0
M  V30 8157 C 767.541 2.47666 -4.5074 0
M  V30 8158 N 765.523 2.45512 -5.62669 0
M  V30 8159 C 766.894 2.30219 -5.75673 0
M  V30 8160 C 768.949 2.33196 -4.39914 0
M  V30 8161 C 767.652 1.99772 -6.91002 0
M  V30 8162 C 769.678 2.0414 -5.5505 0
M  V30 8163 C 769.04 1.875 -6.78987 0
M  V30 8164 H 765.139 0.590296 -0.512908 0
M  V30 8165 H 767.723 0.995058 -1.67352 0
M  V30 8166 H 765.894 3.51511 -1.65211 0
M  V30 8167 H 767.626 3.5777 -1.89163 0
M  V30 8168 H 764.381 2.85647 -3.7776 0
M  V30 8169 H 764.805 2.34958 -6.3492 0
M  V30 8170 H 769.447 2.44777 -3.44738 0
M  V30 8171 H 767.165 1.86928 -7.86183 0
M  V30 8172 H 770.751 1.93711 -5.48605 0
M  V30 8173 H 769.631 1.65339 -7.66572 0
M  V30 8174 N 767.134 1.16236 1.06428 0
M  V30 8175 C 768.382 0.941171 1.78847 0
M  V30 8176 C 768.703 -0.53248 1.87589 0
M  V30 8177 O 767.973 -1.38686 1.38358 0
M  V30 8178 H 766.553 0.345228 0.66244 0
M  V30 8179 H 769.215 1.46479 1.28569 0
M  V30 8180 H 768.311 1.35871 2.80972 0
M  V30 8181 N 768.612 -1.24939 0.960631 0
M  V30 8182 C 770.028 -1.45039 0.666018 0
M  V30 8183 C 770.228 -1.86021 -0.774501 0
M  V30 8184 O 769.284 -1.99392 -1.54916 0
M  V30 8185 C 770.597 -2.51775 1.64408 0
M  V30 8186 C 772.145 -2.6561 1.65592 0
M  V30 8187 C 772.62 -3.75536 2.62177 0
M  V30 8188 N 774.111 -3.82954 2.60577 0
M  V30 8189 C 774.846 -4.67517 3.31987 0
M  V30 8190 N 774.342 -5.56321 4.1289 0
M  V30 8191 N 776.135 -4.61535 3.20845 0
M  V30 8192 H 768.286 -0.96632 1.89145 0
M  V30 8193 H 770.549 -0.486034 0.813926 0
M  V30 8194 H 770.255 -2.28534 2.67329 0
M  V30 8195 H 770.129 -3.49804 1.41128 0
M  V30 8196 H 772.516 -2.88212 0.633846 0
M  V30 8197 H 772.597 -1.67962 1.92931 0
M  V30 8198 H 772.241 -3.53684 3.64514 0
M  V30 8199 H 772.171 -4.72682 2.32119 0
M  V30 8200 H 774.662 -3.19478 2.01847 0
M  V30 8201 H 774.975 -6.17787 4.64283 0
M  V30 8202 H 773.32 -5.5601 4.16987 0
M  V30 8203 H 776.511 -3.91169 2.57108 0
M  V30 8204 H 776.684 -5.27214 3.76762 0
M  V30 8205 N 770.09 -0.729906 -1.39679 0
M  V30 8206 C 771.315 -0.284345 -2.05442 0
M  V30 8207 C 771.74 1.07056 -1.54663 0
M  V30 8208 O 771.098 1.67732 -0.688157 0
M  V30 8209 C 771.146 -0.290089 -3.59431 0
M  V30 8210 O 770.25 0.723978 -4.05995 0
M  V30 8211 H 769.591 -0.130311 -0.651088 0
M  V30 8212 H 772.121 -0.994403 -1.78809 0
M  V30 8213 H 772.131 -0.132712 -4.07784 0
M  V30 8214 H 770.806 -1.27877 -3.95753 0
M  V30 8215 H 769.383 0.533154 -3.69069 0
M  V30 8216 N 771.568 1.50203 -0.477153 0
M  V30 8217 C 772.815 2.02358 0.0757385 0
M  V30 8218 C 773.143 1.3587 1.39174 0
M  V30 8219 O 772.398 0.475415 1.89838 0
M  V30 8220 C 772.697 3.56127 0.301325 0
M  V30 8221 C 772.363 4.41126 -0.933725 0
M  V30 8222 C 771.025 4.64075 -1.27233 0
M  V30 8223 C 773.377 4.90737 -1.75576 0
M  V30 8224 C 770.705 5.33878 -2.43292 0
M  V30 8225 C 773.057 5.61816 -2.90768 0
M  V30 8226 C 771.721 5.83016 -3.25036 0
M  V30 8227 H 770.991 0.740482 0.0277147 0
M  V30 8228 H 773.638 1.80754 -0.632467 0
M  V30 8229 H 771.943 3.76279 1.09183 0
M  V30 8230 H 773.64 3.94053 0.743184 0
M  V30 8231 H 770.23 4.23489 -0.659935 0
M  V30 8232 H 774.414 4.72856 -1.50734 0
M  V30 8233 H 769.67 5.48499 -2.70109 0
M  V30 8234 H 773.844 5.99237 -3.54807 0
M  V30 8235 H 771.471 6.36881 -4.15074 0
M  V30 8236 N 773.046 0.209999 1.56195 0
M  V30 8237 C 774.457 -0.299943 1.84275 0
M  V30 8238 C 774.808 -1.60314 1.1311 0
M  V30 8239 O 773.933 -2.1273 0.396874 0
M  V30 8240 C 774.528 -0.550986 3.3429 0
M  V30 8241 C 773.087 -1.00526 3.62728 0
M  V30 8242 C 772.234 -0.0619828 2.77231 0
M  V30 8243 H 775.185 0.433458 1.52666 0
M  V30 8244 H 775.206 -1.39846 3.53869 0
M  V30 8245 H 774.718 0.397669 3.86057 0
M  V30 8246 H 772.819 -1.96768 3.16407 0
M  V30 8247 H 772.932 -0.887664 4.70805 0
M  V30 8248 H 771.296 -0.566648 2.48317 0
M  V30 8249 H 772.079 0.881383 3.31793 0
M  V30 8250 N 774.524 -1.57472 -0.0634922 0
M  V30 8251 C 775.749 -1.92273 -0.77756 0
M  V30 8252 C 776.174 -0.807141 -1.69902 0
M  V30 8253 O 775.532 0.239523 -1.79711 0
M  V30 8254 C 775.58 -3.26054 -1.54017 0
M  V30 8255 O 774.684 -3.15873 -2.65138 0
M  V30 8256 H 774.025 -0.629389 -0.211579 0
M  V30 8257 H 776.555 -2.04579 -0.0292523 0
M  V30 8258 H 776.565 -3.60127 -1.91763 0
M  V30 8259 H 775.24 -4.06824 -0.864128 0
M  V30 8260 H 773.817 -2.93373 -2.30189 0
M  V30 8261 N 776.003 0.335068 -1.53997 0
M  V30 8262 C 777.249 1.07594 -1.71905 0
M  V30 8263 C 777.582 1.88039 -0.485264 0
M  V30 8264 O 776.857 1.87482 0.517752 0
M  V30 8265 C 777.14 2.01016 -2.98772 0
M  V30 8266 C 776.993 1.23977 -4.32377 0
M  V30 8267 C 778.312 3.0071 -3.21343 0
M  V30 8268 H 775.431 0.38976 -0.625505 0
M  V30 8269 H 778.073 0.353684 -1.86679 0
M  V30 8270 H 776.223 2.62603 -2.86307 0
M  V30 8271 H 777.895 0.649383 -4.56706 0
M  V30 8272 H 776.138 0.541878 -4.30402 0
M  V30 8273 H 776.809 1.92512 -5.17342 0
M  V30 8274 H 779.285 2.4924 -3.33194 0
M  V30 8275 H 778.161 3.63272 -4.11491 0
M  V30 8276 H 778.422 3.72549 -2.38033 0
M  V30 8277 N 777.481 1.45874 0.596531 0
M  V30 8278 C 778.897 1.30524 0.918459 0
M  V30 8279 C 779.097 0.266429 1.99731 0
M  V30 8280 O 778.153 -0.335809 2.50257 0
M  V30 8281 C 779.466 2.68747 1.3489 0
M  V30 8282 C 781.014 2.7673 1.46251 0
M  V30 8283 C 781.489 4.15504 1.92667 0
M  V30 8284 N 782.98 4.17853 1.99883 0
M  V30 8285 C 783.715 5.22109 2.37044 0
M  V30 8286 N 783.211 6.36704 2.73094 0
M  V30 8287 N 785.004 5.09471 2.37479 0
M  V30 8288 H 777.155 2.12081 -0.116368 0
M  V30 8289 H 779.418 0.947941 0.0106033 0
M  V30 8290 H 779.124 3.46006 0.630288 0
M  V30 8291 H 778.998 2.97942 2.31323 0
M  V30 8292 H 781.385 1.99768 2.17202 0
M  V30 8293 H 781.466 2.51236 0.481054 0
M  V30 8294 H 781.11 4.92956 1.223 0
M  V30 8295 H 781.04 4.38396 2.91747 0
M  V30 8296 H 783.531 3.35163 1.74568 0
M  V30 8297 H 783.844 7.12041 3.00362 0
M  V30 8298 H 782.189 6.40087 2.70764 0
M  V30 8299 H 785.38 4.18987 2.08728 0
M  V30 8300 H 785.553 5.90837 2.66112 0
M  V30 8301 N 778.959 -0.83999 1.33349 0
M  V30 8302 C 779.869 -1.98182 1.25543 0
M  V30 8303 C 780.885 -1.73204 0.166208 0
M  V30 8304 O 782.061 -1.97596 0.389589 0
M  V30 8305 C 779.126 -3.32157 0.993614 0
M  V30 8306 C 778.187 -3.70258 2.17273 0
M  V30 8307 C 777.42 -4.9784 1.92331 0
M  V30 8308 O 777.643 -5.63679 0.873074 0
M  V30 8309 O 776.577 -5.33418 2.78835 0
M  V30 8310 H 780.403 -2.07708 2.21565 0
M  V30 8311 H 777.988 -0.972852 1.13384 0
M  V30 8312 H 779.87 -4.12433 0.864711 0
M  V30 8313 H 778.545 -3.23637 0.0636596 0
M  V30 8314 H 777.452 -2.90497 2.35716 0
M  V30 8315 H 778.785 -3.83442 3.08598 0
M  V30 8316 N 780.437 -1.16799 -1.0581 0
M  V30 8317 C 781.367 -0.902241 -2.15364 0
M  V30 8318 C 782.348 0.153351 -1.69407 0
M  V30 8319 O 783.533 0.00442032 -1.94199 0
M  V30 8320 C 780.663 -0.407911 -3.44896 0
M  V30 8321 C 779.617 -1.40197 -4.04387 0
M  V30 8322 C 778.943 -0.765848 -5.29187 0
M  V30 8323 C 780.243 -2.77316 -4.42598 0
M  V30 8324 H 781.937 -1.81841 -2.37853 0
M  V30 8325 H 779.483 -0.875731 -1.14311 0
M  V30 8326 H 781.436 -0.20945 -4.20879 0
M  V30 8327 H 780.16 0.54378 -3.22041 0
M  V30 8328 H 778.819 -1.58707 -3.30466 0
M  V30 8329 H 778.467 0.192482 -5.02632 0
M  V30 8330 H 778.167 -1.42939 -5.69949 0
M  V30 8331 H 779.691 -0.577519 -6.07863 0
M  V30 8332 H 781.105 -2.62561 -5.09642 0
M  V30 8333 H 779.502 -3.4019 -4.94359 0
M  V30 8334 H 780.572 -3.32199 -3.53231 0
M  V30 8335 N 781.915 1.24427 -0.967243 0
M  V30 8336 C 783.163 1.92107 -0.627638 0
M  V30 8337 C 783.484 1.75991 0.83978 0
M  V30 8338 O 782.754 1.13118 1.59941 0
M  V30 8339 H 781.334 0.710986 -0.229145 0
M  V30 8340 H 783.996 1.51331 -1.22821 0
M  V30 8341 H 783.092 2.99791 -0.867844 0
M  V30 8342 N 783.393 0.737304 1.3929 0
M  V30 8343 C 784.356 0.10731 2.28949 0
M  V30 8344 C 785.356 -0.664716 1.46418 0
M  V30 8345 O 786.546 -0.493392 1.67067 0
M  V30 8346 C 783.678 -0.857145 3.29948 0
M  V30 8347 H 784.871 0.89725 2.86163 0
M  V30 8348 H 782.424 0.503279 1.47976 0
M  V30 8349 H 783.159 -1.67336 2.77794 0
M  V30 8350 H 782.944 -0.306167 3.90903 0
M  V30 8351 H 784.434 -1.29444 3.97031 0
M  V30 8352 N 784.871 -1.49948 0.485112 0
M  V30 8353 C 785.834 -2.27351 -0.290546 0
M  V30 8354 C 786.834 -1.32704 -0.908087 0
M  V30 8355 O 788.024 -1.56007 -0.775085 0
M  V30 8356 C 785.156 -3.10135 -1.41524 0
M  V30 8357 H 786.349 -2.97374 0.388454 0
M  V30 8358 H 783.902 -1.54453 0.239586 0
M  V30 8359 H 784.637 -2.44641 -2.12888 0
M  V30 8360 H 784.422 -3.79705 -0.978074 0
M  V30 8361 H 785.912 -3.68638 -1.96204 0
M  V30 8362 N 786.349 -0.21828 -1.56081 0
M  V30 8363 C 787.279 0.687922 -2.23136 0
M  V30 8364 C 788.26 1.20357 -1.202 0
M  V30 8365 O 789.445 1.24817 -1.48776 0
M  V30 8366 C 786.575 1.89762 -2.90874 0
M  V30 8367 C 785.529 1.51595 -4.00254 0
M  V30 8368 C 784.855 2.80415 -4.55271 0
M  V30 8369 C 786.155 0.708404 -5.17474 0
M  V30 8370 H 787.849 0.128854 -2.99123 0
M  V30 8371 H 785.395 0.0605354 -1.43873 0
M  V30 8372 H 787.348 2.53699 -3.36474 0
M  V30 8373 H 786.072 2.4816 -2.1233 0
M  V30 8374 H 784.731 0.900058 -3.55379 0
M  V30 8375 H 784.379 3.36951 -3.73461 0
M  V30 8376 H 784.079 2.55613 -5.2909 0
M  V30 8377 H 785.603 3.453 -5.03587 0
M  V30 8378 H 787.017 1.2514 -5.59476 0
M  V30 8379 H 785.414 0.557593 -5.97504 0
M  V30 8380 H 786.484 -0.285679 -4.84058 0
M  V30 8381 N 787.827 1.57504 0.0551401 0
M  V30 8382 C 788.759 2.0158 1.09078 0
M  V30 8383 C 789.772 0.92434 1.34014 0
M  V30 8384 O 790.961 1.20202 1.31961 0
M  V30 8385 C 788.061 2.35385 2.43818 0
M  V30 8386 C 787.234 3.66588 2.38605 0
M  V30 8387 C 786.293 3.87874 3.55585 0
M  V30 8388 O 785.319 4.59259 3.36258 0
M  V30 8389 N 786.521 3.31503 4.76536 0
M  V30 8390 H 789.286 2.91039 0.71529 0
M  V30 8391 H 786.847 1.60058 0.243532 0
M  V30 8392 H 788.839 2.46784 3.20749 0
M  V30 8393 H 787.409 1.51731 2.73307 0
M  V30 8394 H 786.629 3.65787 1.46947 0
M  V30 8395 H 787.917 4.52706 2.32239 0
M  V30 8396 H 787.315 2.73592 4.9514 0
M  V30 8397 H 785.872 3.48324 5.50921 0
M  V30 8398 N 789.305 -0.326896 1.54172 0
M  V30 8399 C 790.553 -1.06313 1.71878 0
M  V30 8400 C 790.874 -1.88652 0.493498 0
M  V30 8401 O 790.144 -1.89608 -0.492522 0
M  V30 8402 H 788.724 -0.39549 0.633716 0
M  V30 8403 H 791.386 -0.364139 1.91468 0
M  V30 8404 H 790.482 -1.73105 2.59694 0
M  V30 8405 N 790.784 -1.46188 -0.588786 0
M  V30 8406 C 792.024 -1.52738 -1.35833 0
M  V30 8407 C 792.388 -0.172403 -1.91224 0
M  V30 8408 O 793.589 -0.112633 -2.68564 0
M  V30 8409 C 791.86 -2.59085 -2.4619 0
M  V30 8410 S 793.419 -2.84997 -3.3365 0
M  V30 8411 H 790.237 -0.539713 -0.462851 0
M  V30 8412 H 792.839 -1.83386 -0.677489 0
M  V30 8413 H 791.543 -3.56177 -2.03878 0
M  V30 8414 H 791.074 -2.3015 -3.19053 0
M  V30 8415 H 793.089 -2.19804 -4.4486 0
M  V30 8416 N 792.262 0.832906 -1.33792 0
M  V30 8417 C 793.192 1.95828 -1.27176 0
M  V30 8418 C 794.173 1.69427 -0.15114 0
M  V30 8419 O 795.358 1.91167 -0.341886 0
M  V30 8420 C 792.488 3.32098 -1.01629 0
M  V30 8421 C 791.442 3.72912 -2.10049 0
M  V30 8422 C 790.768 5.07054 -1.69706 0
M  V30 8423 C 792.068 3.86064 -3.51783 0
M  V30 8424 H 793.762 2.01622 -2.21334 0
M  V30 8425 H 791.308 0.96866 -1.0655 0
M  V30 8426 H 793.261 4.10402 -0.956474 0
M  V30 8427 H 791.985 3.26577 -0.0390956 0
M  V30 8428 H 790.644 2.96876 -2.15082 0
M  V30 8429 H 790.292 4.9801 -0.706737 0
M  V30 8430 H 789.992 5.35333 -2.42264 0
M  V30 8431 H 791.516 5.87827 -1.65202 0
M  V30 8432 H 792.93 4.54665 -3.49218 0
M  V30 8433 H 791.327 4.25787 -4.22878 0
M  V30 8434 H 792.397 2.88344 -3.89854 0
M  V30 8435 N 793.74 1.17359 1.05189 0
M  V30 8436 C 794.67 0.91365 2.14883 0
M  V30 8437 C 795.651 -0.144365 1.69486 0
M  V30 8438 O 796.836 0.00587861 1.94199 0
M  V30 8439 C 793.966 0.426196 3.44675 0
M  V30 8440 C 792.92 1.4234 4.03638 0
M  V30 8441 C 792.246 0.793902 5.28773 0
M  V30 8442 C 793.546 2.7966 4.41121 0
M  V30 8443 H 795.24 1.831 2.36885 0
M  V30 8444 H 792.786 0.881781 1.13845 0
M  V30 8445 H 794.739 0.231767 4.20762 0
M  V30 8446 H 793.463 -0.526693 3.22325 0
M  V30 8447 H 792.122 1.60457 3.2962 0
M  V30 8448 H 791.77 -0.165824 5.02727 0
M  V30 8449 H 791.47 1.45959 5.69183 0
M  V30 8450 H 792.994 0.609747 6.07548 0
M  V30 8451 H 794.408 2.6526 5.08242 0
M  V30 8452 H 792.805 3.42807 4.92548 0
M  V30 8453 H 793.875 3.34068 3.51464 0
M  V30 8454 N 795.218 -1.23913 0.973828 0
M  V30 8455 C 796.634 -1.44325 0.681363 0
M  V30 8456 C 796.834 -1.86832 -0.754728 0
M  V30 8457 O 795.89 -2.01024 -1.52793 0
M  V30 8458 C 797.203 -2.50017 1.67069 0
M  V30 8459 C 798.751 -2.63838 1.68399 0
M  V30 8460 C 799.226 -3.72734 2.66145 0
M  V30 8461 N 800.717 -3.80169 2.64624 0
M  V30 8462 C 801.452 -4.6397 3.36927 0
M  V30 8463 N 800.948 -5.51911 4.18767 0
M  V30 8464 N 802.741 -4.58106 3.25722 0
M  V30 8465 H 794.892 -0.946204 1.9016 0
M  V30 8466 H 797.155 -0.477374 0.819035 0
M  V30 8467 H 796.861 -2.25686 2.69738 0
M  V30 8468 H 796.735 -3.48287 1.4483 0
M  V30 8469 H 799.122 -2.87524 0.664379 0
M  V30 8470 H 799.203 -1.65906 1.94702 0
M  V30 8471 H 798.847 -3.49797 3.68245 0
M  V30 8472 H 798.777 -4.70193 2.3712 0
M  V30 8473 H 801.268 -3.17319 2.05224 0
M  V30 8474 H 801.581 -6.12828 4.70809 0
M  V30 8475 H 799.926 -5.51556 4.2286 0
M  V30 8476 H 803.117 -3.8842 2.61242 0
M  V30 8477 H 803.29 -5.23188 3.82333 0
M  V30 8478 N 796.696 -0.74468 -1.38897 0
M  V30 8479 C 797.659 -0.11945 -2.28889 0
M  V30 8480 C 798.659 0.656942 -1.46768 0
M  V30 8481 O 799.849 0.484525 -1.67326 0
M  V30 8482 C 796.981 0.839635 -3.30398 0
M  V30 8483 H 798.174 -0.912414 -2.85683 0
M  V30 8484 H 795.727 -0.511119 -1.47707 0
M  V30 8485 H 796.462 1.6586 -2.78677 0
M  V30 8486 H 796.247 0.285432 -3.9106 0
M  V30 8487 H 797.737 1.27337 -3.97712 0
M  V30 8488 N 798.174 1.49689 -0.493057 0
M  V30 8489 C 799.422 2.02027 0.0541642 0
M  V30 8490 C 799.743 1.37554 1.38217 0
M  V30 8491 O 799.013 0.528174 1.88646 0
M  V30 8492 H 797.593 0.746646 0.0230069 0
M  V30 8493 H 800.255 1.83795 -0.648489 0
M  V30 8494 H 799.351 3.11523 0.189652 0
M  V30 8495 N 799.652 0.226554 1.55963 0
M  V30 8496 C 800.929 -0.453058 1.90281 0
M  V30 8497 C 801.309 -1.77377 1.14458 0
M  V30 8498 O 800.657 -2.27067 0.255496 0
M  V30 8499 C 800.867 -0.641108 3.43061 0
M  V30 8500 C 802.215 -0.946265 4.13921 0
M  V30 8501 O 803.239 -0.727713 3.48687 0
M  V30 8502 O 802.098 -1.36131 5.29274 0
M  V30 8503 H 799.192 -0.240242 0.791336 0
M  V30 8504 H 801.738 0.26911 1.67553 0
M  V30 8505 H 800.51 0.290283 3.90222 0
M  V30 8506 H 800.133 -1.41458 3.71585 0
M  V30 8507 N 801.13 -1.57531 -0.0467866 0
M  V30 8508 C 802.407 -1.79568 -0.775536 0
M  V30 8509 C 802.787 -0.820322 -1.94509 0
M  V30 8510 O 802.135 0.14134 -2.28062 0
M  V30 8511 C 802.345 -3.26789 -1.22516 0
M  V30 8512 C 803.693 -3.91299 -1.64835 0
M  V30 8513 O 804.717 -3.30831 -1.3202 0
M  V30 8514 O 803.576 -4.97727 -2.25677 0
M  V30 8515 H 800.67 -0.737817 -0.373572 0
M  V30 8516 H 803.216 -1.69682 -0.0249302 0
M  V30 8517 H 801.988 -3.89357 -0.389446 0
M  V30 8518 H 801.611 -3.41496 -2.03633 0
M  V30 8519 N 802.608 0.318715 -1.54344 0
M  V30 8520 C 803.848 1.06425 -1.74508 0
M  V30 8521 C 804.212 1.85087 -0.510572 0
M  V30 8522 O 805.413 2.62253 -0.589647 0
M  V30 8523 C 803.684 1.96054 -2.98827 0
M  V30 8524 S 805.243 2.77493 -3.39916 0
M  V30 8525 H 802.061 0.35921 -0.613587 0
M  V30 8526 H 804.663 0.339679 -1.92526 0
M  V30 8527 H 803.367 1.37109 -3.8682 0
M  V30 8528 H 802.898 2.72908 -2.83346 0
M  V30 8529 H 804.913 3.98544 -2.95596 0
M  V30 8530 N 804.086 1.46499 0.581025 0
M  V30 8531 C 805.333 1.51896 1.33918 0
M  V30 8532 C 805.661 0.171361 1.93744 0
M  V30 8533 O 804.916 -0.833178 1.77078 0
M  V30 8534 C 805.215 2.56686 2.48691 0
M  V30 8535 C 804.881 4.00656 2.06847 0
M  V30 8536 C 803.543 4.39852 1.9515 0
M  V30 8537 C 805.895 4.91089 1.74589 0
M  V30 8538 C 803.223 5.67345 1.49456 0
M  V30 8539 C 805.575 6.1902 1.30373 0
M  V30 8540 C 804.239 6.57121 1.17255 0
M  V30 8541 H 803.509 0.555826 0.490039 0
M  V30 8542 H 806.156 1.79983 0.654092 0
M  V30 8543 H 804.461 2.22266 3.22653 0
M  V30 8544 H 806.158 2.58091 3.06904 0
M  V30 8545 H 802.748 3.69674 2.16886 0
M  V30 8546 H 806.932 4.61523 1.8251 0
M  V30 8547 H 802.188 5.95635 1.37944 0
M  V30 8548 H 806.362 6.8852 1.04467 0
M  V30 8549 H 803.989 7.55805 0.816236 0
M  V30 8550 N 805.565 -0.825799 1.34232 0
M  V30 8551 C 806.79 -1.61883 1.29648 0
M  V30 8552 C 807.215 -1.87669 -0.127295 0
M  V30 8553 O 806.573 -1.45016 -1.08813 0
M  V30 8554 C 806.621 -2.93846 2.09014 0
M  V30 8555 O 805.725 -3.85778 1.4577 0
M  V30 8556 H 805.066 -0.492454 0.445405 0
M  V30 8557 H 807.596 -1.02641 1.76992 0
M  V30 8558 H 807.606 -3.43435 2.20264 0
M  V30 8559 H 806.281 -2.74401 3.12533 0
M  V30 8560 H 804.858 -3.4429 1.43245 0
M  V30 8561 N 807.043 -1.17915 -1.04565 0
M  V30 8562 C 807.973 -0.925033 -2.14395 0
M  V30 8563 C 808.954 0.135375 -1.6956 0
M  V30 8564 O 810.139 -0.0161774 -1.94193 0
M  V30 8565 C 807.269 -0.444469 -3.44444 0
M  V30 8566 C 806.223 -1.44478 -4.02877 0
M  V30 8567 C 805.549 -0.821933 -5.28345 0
M  V30 8568 C 806.849 -2.81995 -4.39632 0
M  V30 8569 H 808.543 -1.84354 -2.35911 0
M  V30 8570 H 806.089 -0.887806 -1.13375 0
M  V30 8571 H 808.042 -0.254078 -4.20633 0
M  V30 8572 H 806.766 0.509592 -3.226 0
M  V30 8573 H 805.425 -1.62203 -3.28764 0
M  V30 8574 H 805.073 0.139161 -5.02807 0
M  V30 8575 H 804.773 -1.48976 -5.68401 0
M  V30 8576 H 806.297 -0.641959 -6.07216 0
M  V30 8577 H 807.711 -2.67952 -5.06828 0
M  V30 8578 H 806.108 -3.45414 -4.90723 0
M  V30 8579 H 807.178 -3.35927 -3.49687 0
M  V30 8580 N 808.521 1.23394 -0.980386 0
M  V30 8581 C 809.937 1.43961 -0.689008 0
M  V30 8582 C 810.137 1.87229 0.744809 0
M  V30 8583 O 809.193 2.01831 1.51725 0
M  V30 8584 C 810.506 2.49128 -1.68392 0
M  V30 8585 C 812.054 2.62941 -1.69796 0
M  V30 8586 C 812.529 3.71317 -2.68118 0
M  V30 8587 N 814.02 3.7876 -2.66636 0
M  V30 8588 C 814.755 4.62176 -3.39383 0
M  V30 8589 N 814.251 5.49682 -4.21688 0
M  V30 8590 N 816.044 4.56372 -3.28147 0
M  V30 8591 H 808.195 0.936106 -1.90659 0
M  V30 8592 H 810.458 0.473023 -0.821555 0
M  V30 8593 H 810.164 2.24252 -2.70931 0
M  V30 8594 H 810.038 3.47514 -1.46675 0
M  V30 8595 H 812.425 2.87168 -0.679617 0
M  V30 8596 H 812.506 1.64871 -1.95579 0
M  V30 8597 H 812.15 3.4784 -3.70095 0
M  V30 8598 H 812.08 4.68929 -2.3961 0
M  V30 8599 H 814.571 3.16226 -2.06904 0
M  V30 8600 H 814.884 6.10323 -4.74053 0
M  V30 8601 H 813.229 5.49306 -4.25779 0
M  V30 8602 H 816.42 3.87029 -2.63299 0
M  V30 8603 H 816.593 5.21153 -3.85102 0
M  V30 8604 N 809.999 0.752036 1.385 0
M  V30 8605 C 811.415 0.42946 1.53713 0
M  V30 8606 C 811.615 -1.0576 1.71514 0
M  V30 8607 O 810.671 -1.84366 1.72527 0
M  V30 8608 C 811.984 1.22735 2.74511 0
M  V30 8609 C 813.532 1.21727 2.8836 0
M  V30 8610 C 814.007 1.99809 4.12117 0
M  V30 8611 N 815.498 1.97062 4.19191 0
M  V30 8612 C 816.233 2.54274 5.13938 0
M  V30 8613 N 815.729 3.20193 6.14368 0
M  V30 8614 N 817.522 2.44212 5.06277 0
M  V30 8615 H 809.673 1.71581 1.25195 0
M  V30 8616 H 811.936 0.727293 0.60807 0
M  V30 8617 H 811.642 2.28032 2.67758 0
M  V30 8618 H 811.516 0.843186 3.67655 0
M  V30 8619 H 813.903 0.172367 2.94596 0
M  V30 8620 H 813.984 1.64094 1.96232 0
M  V30 8621 H 813.628 3.0431 4.06642 0
M  V30 8622 H 813.558 1.54837 5.03322 0
M  V30 8623 H 816.049 1.49054 3.47263 0
M  V30 8624 H 816.362 3.61272 6.83156 0
M  V30 8625 H 814.707 3.24287 6.14705 0
M  V30 8626 H 817.898 1.92343 4.26757 0
M  V30 8627 H 818.071 2.89096 5.79937 0
M  V30 8628 N 811.477 -1.49425 0.500989 0
M  V30 8629 C 812.717 -2.04357 -0.0419004 0
M  V30 8630 C 813.081 -1.37236 -1.34277 0
M  V30 8631 O 814.282 -1.82889 -1.9699 0
M  V30 8632 C 812.553 -3.56889 -0.19112 0
M  V30 8633 S 814.112 -4.33369 -0.688259 0
M  V30 8634 H 810.93 -0.710998 -0.00177796 0
M  V30 8635 H 813.532 -1.83479 0.674953 0
M  V30 8636 H 812.236 -4.03283 0.760964 0
M  V30 8637 H 811.767 -3.82171 -0.933214 0
M  V30 8638 H 813.782 -4.55961 -1.9574 0
M  V30 8639 N 812.955 -0.234822 -1.55841 0
M  V30 8640 C 814.195 0.394944 -2.00548 0
M  V30 8641 C 814.559 1.56002 -1.11926 0
M  V30 8642 O 815.76 2.2567 -1.46037 0
M  V30 8643 C 814.031 0.805896 -3.48195 0
M  V30 8644 S 815.59 1.4279 -4.14918 0
M  V30 8645 H 812.408 0.124802 -0.699961 0
M  V30 8646 H 815.01 -0.347224 -1.92392 0
M  V30 8647 H 813.714 -0.0515271 -4.10368 0
M  V30 8648 H 813.245 1.58055 -3.60253 0
M  V30 8649 H 815.26 2.71699 -4.15204 0
M  V30 8650 N 814.433 1.57553 0.0384317 0
M  V30 8651 C 815.363 2.0898 1.04161 0
M  V30 8652 C 816.344 0.99029 1.38301 0
M  V30 8653 O 817.529 1.26499 1.47349 0
M  V30 8654 C 814.659 2.56145 2.34536 0
M  V30 8655 C 813.613 3.70275 2.14663 0
M  V30 8656 C 812.939 4.03612 3.50715 0
M  V30 8657 C 814.239 4.99067 1.54045 0
M  V30 8658 H 815.933 2.93046 0.613548 0
M  V30 8659 H 813.479 1.40973 0.293684 0
M  V30 8660 H 815.432 2.90741 3.05037 0
M  V30 8661 H 814.156 1.6915 2.79385 0
M  V30 8662 H 812.815 3.36013 1.46597 0
M  V30 8663 H 812.463 3.13698 3.93195 0
M  V30 8664 H 812.163 4.80482 3.38247 0
M  V30 8665 H 813.687 4.40735 4.22593 0
M  V30 8666 H 815.101 5.3168 2.14451 0
M  V30 8667 H 813.498 5.80484 1.52178 0
M  V30 8668 H 814.568 4.8226 0.505259 0
M  V30 8669 N 815.911 -0.310526 1.54511 0
M  V30 8670 C 817.322 -0.884142 1.64438 0
M  V30 8671 C 817.673 -1.88425 0.546855 0
M  V30 8672 O 816.798 -2.14049 -0.31811 0
M  V30 8673 C 817.393 -1.6104 2.9808 0
M  V30 8674 C 815.952 -2.13255 3.1016 0
M  V30 8675 C 815.099 -0.96213 2.60074 0
M  V30 8676 H 818.05 -0.0877666 1.58457 0
M  V30 8677 H 818.071 -2.47541 2.8897 0
M  V30 8678 H 817.583 -0.882255 3.77939 0
M  V30 8679 H 815.684 -2.89145 2.35002 0
M  V30 8680 H 815.797 -2.37361 4.16169 0
M  V30 8681 H 814.161 -1.34501 2.16291 0
M  V30 8682 H 814.944 -0.248098 3.42402 0
M  V30 8683 N 817.389 -1.46805 -0.573248 0
M  V30 8684 C 818.321 -1.54127 -1.6964 0
M  V30 8685 C 819.334 -0.428778 -1.57052 0
M  V30 8686 O 820.523 -0.697612 -1.64303 0
M  V30 8687 C 817.623 -1.41438 -3.07975 0
M  V30 8688 C 816.796 -2.66974 -3.46474 0
M  V30 8689 C 815.855 -2.48349 -4.63906 0
M  V30 8690 O 814.881 -3.22109 -4.69292 0
M  V30 8691 N 816.083 -1.55129 -5.59388 0
M  V30 8692 H 818.848 -2.50971 -1.6381 0
M  V30 8693 H 816.409 -1.42981 -0.759479 0
M  V30 8694 H 818.401 -1.26737 -3.84343 0
M  V30 8695 H 816.971 -0.527388 -3.08119 0
M  V30 8696 H 816.191 -2.9655 -2.59715 0
M  V30 8697 H 817.479 -3.50347 -3.68964 0
M  V30 8698 H 816.877 -0.94324 -5.57781 0
M  V30 8699 H 815.434 -1.46387 -6.35149 0
M  V30 8700 N 818.867 0.818669 -1.34668 0
M  V30 8701 C 820.278 1.39177 -1.24446 0
M  V30 8702 C 820.629 1.9578 0.128268 0
M  V30 8703 O 819.754 1.90382 1.02877 0
M  V30 8704 C 820.349 2.53012 -2.25323 0
M  V30 8705 C 818.908 3.06218 -2.18878 0
M  V30 8706 C 818.055 1.79112 -2.11694 0
M  V30 8707 H 821.006 0.622709 -1.45973 0
M  V30 8708 H 821.027 3.31226 -1.8727 0
M  V30 8709 H 820.539 2.11784 -3.25221 0
M  V30 8710 H 818.64 3.51939 -1.22351 0
M  V30 8711 H 818.753 3.65019 -3.10319 0
M  V30 8712 H 817.117 2.0018 -1.57481 0
M  V30 8713 H 817.9 1.40053 -3.13433 0
M  V30 8714 N 820.346 1.18468 1.03938 0
M  V30 8715 C 821.594 0.978895 1.76811 0
M  V30 8716 C 821.915 -0.49257 1.88676 0
M  V30 8717 O 821.185 -1.3572 1.41269 0
M  V30 8718 H 819.765 0.359201 0.654968 0
M  V30 8719 H 822.427 1.49173 1.25433 0
M  V30 8720 H 821.523 1.418 2.78027 0
M  V30 8721 N 821.824 -1.22873 0.986916 0
M  V30 8722 C 822.734 -2.28277 0.540978 0
M  V30 8723 C 823.75 -1.69164 -0.407363 0
M  V30 8724 O 824.926 -1.99504 -0.275674 0
M  V30 8725 C 821.991 -3.46404 -0.143181 0
M  V30 8726 C 821.052 -4.20854 0.847375 0
M  V30 8727 C 820.285 -5.33341 0.19577 0
M  V30 8728 O 820.508 -5.61356 -1.0117 0
M  V30 8729 O 819.442 -5.95169 0.897623 0
M  V30 8730 H 823.268 -2.68578 1.41773 0
M  V30 8731 H 820.853 -1.28927 0.754867 0
M  V30 8732 H 822.735 -4.18096 -0.526676 0
M  V30 8733 H 821.41 -3.08041 -0.994593 0
M  V30 8734 H 820.317 -3.51459 1.28169 0
M  V30 8735 H 821.65 -4.63082 1.6678 0
M  V30 8736 N 823.302 -0.75937 -1.38099 0
M  V30 8737 C 824.53 -0.329111 -2.04266 0
M  V30 8738 C 824.945 1.04453 -1.57274 0
M  V30 8739 O 824.302 1.66449 -0.748397 0
M  V30 8740 C 824.353 -0.349192 -3.5981 0
M  V30 8741 O 824.074 -1.66863 -4.05078 0
M  V30 8742 C 825.575 0.0942106 -4.432 0
M  V30 8743 H 822.795 -0.13971 -0.656294 0
M  V30 8744 H 825.339 -1.02984 -1.76677 0
M  V30 8745 H 823.494 0.302846 -3.86214 0
M  V30 8746 H 823.908 -1.59877 -4.9954 0
M  V30 8747 H 825.382 0.0290004 -5.51992 0
M  V30 8748 H 825.859 1.1429 -4.24069 0
M  V30 8749 H 826.465 -0.529171 -4.21995 0
M  V30 8750 N 824.78 1.49157 -0.508906 0
M  V30 8751 C 826.005 2.07376 0.0315182 0
M  V30 8752 C 826.43 1.36575 1.2934 0
M  V30 8753 O 825.788 0.424963 1.76249 0
M  V30 8754 C 825.836 3.59661 0.260118 0
M  V30 8755 O 824.94 3.90255 1.33322 0
M  V30 8756 H 824.281 0.663334 -0.029739 0
M  V30 8757 H 826.811 1.91857 -0.710791 0
M  V30 8758 H 826.821 4.05056 0.489225 0
M  V30 8759 H 825.496 4.10601 -0.661794 0
M  V30 8760 H 824.073 3.56661 1.08844 0
M  V30 8761 N 826.258 0.243083 1.55714 0
M  V30 8762 C 827.206 -0.674349 2.2261 0
M  V30 8763 C 828.2 -1.18307 1.21243 0
M  V30 8764 O 829.406 -1.1404 1.39265 0
M  V30 8765 H 825.781 -0.235941 0.714028 0
M  V30 8766 H 827.752 -0.0869446 2.98273 0
M  V30 8767 C 826.501 -1.86206 2.93637 0
M  V30 8768 H 825.824 -1.47975 3.71407 0
M  V30 8769 H 827.264 -2.4813 3.43813 0
M  V30 8770 C 825.723 -2.73084 1.97298 0
M  V30 8771 O 826.253 -3.72497 1.50361 0
M  V30 8772 N 824.459 -2.39571 1.64482 0
M  V30 8773 H 824.006 -1.5878 2.02846 0
M  V30 8774 H 823.964 -2.97976 1.00288 0
M  V30 8775 N 827.736 -1.57571 -0.0300757 0
M  V30 8776 C 828.666 -2.0953 -1.03051 0
M  V30 8777 C 829.647 -0.99761 -1.37774 0
M  V30 8778 O 830.832 -1.27279 -1.46676 0
M  V30 8779 C 827.962 -2.57385 -2.33174 0
M  V30 8780 C 826.916 -3.71409 -2.12696 0
M  V30 8781 C 826.242 -4.05467 -3.4857 0
M  V30 8782 C 827.542 -4.99877 -1.51396 0
M  V30 8783 H 829.236 -2.93367 -0.597999 0
M  V30 8784 H 826.782 -1.41127 -0.286203 0
M  V30 8785 H 828.735 -2.92355 -3.03491 0
M  V30 8786 H 827.459 -1.70629 -2.78484 0
M  V30 8787 H 826.118 -3.36786 -1.44813 0
M  V30 8788 H 825.766 -3.15779 -3.91526 0
M  V30 8789 H 825.466 -4.82269 -3.35694 0
M  V30 8790 H 826.99 -4.4297 -4.2025 0
M  V30 8791 H 828.404 -5.3281 -2.11629 0
M  V30 8792 H 826.801 -5.81283 -1.49098 0
M  V30 8793 H 827.871 -4.82522 -0.479676 0
M  V30 8794 N 829.214 0.302327 -1.54673 0
M  V30 8795 C 830.463 1.03533 -1.73101 0
M  V30 8796 C 830.776 1.88473 -0.523174 0
M  V30 8797 O 831.982 2.65029 -0.589229 0
M  V30 8798 C 830.438 1.89043 -3.06252 0
M  V30 8799 C 830.046 1.09112 -4.3451 0
M  V30 8800 C 831.79 2.61951 -3.34039 0
M  V30 8801 C 829.697 1.93891 -5.58713 0
M  V30 8802 H 828.627 0.390261 -0.645145 0
M  V30 8803 H 831.278 0.2924 -1.81155 0
M  V30 8804 H 829.66 2.67319 -2.92159 0
M  V30 8805 H 830.834 0.354596 -4.59434 0
M  V30 8806 H 829.149 0.477923 -4.13648 0
M  V30 8807 H 831.746 3.25729 -4.24033 0
M  V30 8808 H 832.089 3.30711 -2.52855 0
M  V30 8809 H 832.622 1.90725 -3.49097 0
M  V30 8810 H 829.361 1.29604 -6.4256 0
M  V30 8811 H 828.881 2.6522 -5.37976 0
M  V30 8812 H 830.56 2.51971 -5.95919 0
M  V30 8813 N 830.692 1.47107 0.565454 0
M  V30 8814 C 831.941 1.5257 1.31929 0
M  V30 8815 C 832.254 0.189092 1.94684 0
M  V30 8816 O 833.46 0.121657 2.71227 0
M  V30 8817 C 831.916 2.68914 2.39193 0
M  V30 8818 C 831.524 4.09069 1.82665 0
M  V30 8819 C 833.268 2.83663 3.1581 0
M  V30 8820 C 831.175 5.16726 2.87661 0
M  V30 8821 H 830.105 0.567869 0.496025 0
M  V30 8822 H 832.756 1.73361 0.60151 0
M  V30 8823 H 831.138 2.41486 3.13848 0
M  V30 8824 H 832.312 4.46364 1.14438 0
M  V30 8825 H 830.627 3.99135 1.1866 0
M  V30 8826 H 833.224 3.61261 3.94201 0
M  V30 8827 H 833.567 1.91804 3.69482 0
M  V30 8828 H 834.1 3.10821 2.48265 0
M  V30 8829 H 830.839 6.10433 2.38854 0
M  V30 8830 H 830.359 4.83957 3.54324 0
M  V30 8831 H 832.038 5.43319 3.51303 0
M  V30 8832 N 832.17 -0.811516 1.35101 0
M  V30 8833 C 833.103 -1.92872 1.21966 0
M  V30 8834 C 834.081 -1.62236 0.108667 0
M  V30 8835 O 835.265 -1.8647 0.275875 0
M  V30 8836 C 832.392 -3.27152 0.876886 0
M  V30 8837 C 831.438 -3.7674 1.99924 0
M  V30 8838 S 832.271 -3.95132 3.61429 0
M  V30 8839 C 833.427 -5.32322 3.29218 0
M  V30 8840 H 833.66 -2.03718 2.16532 0
M  V30 8841 H 831.193 -0.968352 1.20259 0
M  V30 8842 H 833.151 -4.04729 0.685917 0
M  V30 8843 H 831.812 -3.14059 -0.0506289 0
M  V30 8844 H 831.005 -4.73981 1.71343 0
M  V30 8845 H 830.607 -3.06145 2.14829 0
M  V30 8846 H 832.899 -6.1614 2.8174 0
M  V30 8847 H 833.842 -5.65893 4.25641 0
M  V30 8848 H 834.25 -4.98374 2.65111 0
M  V30 8849 N 833.648 -1.19017 -1.03309 0
M  V30 8850 C 835.064 -0.941483 -1.28873 0
M  V30 8851 C 835.264 0.388587 -1.97718 0
M  V30 8852 O 834.32 1.12111 -2.26246 0
M  V30 8853 C 835.633 -2.11249 -2.13996 0
M  V30 8854 C 837.181 -2.15164 -2.27318 0
M  V30 8855 C 837.656 -3.31704 -3.15811 0
M  V30 8856 N 839.147 -3.31613 -3.23399 0
M  V30 8857 C 839.882 -4.18431 -3.9205 0
M  V30 8858 N 839.378 -5.15397 -4.62966 0
M  V30 8859 N 841.171 -4.06321 -3.88406 0
M  V30 8860 H 833.322 -2.04599 -0.570343 0
M  V30 8861 H 835.585 -0.894406 -0.314232 0
M  V30 8862 H 835.291 -3.07482 -1.70727 0
M  V30 8863 H 835.165 -2.07955 -3.14697 0
M  V30 8864 H 837.552 -1.19504 -2.6982 0
M  V30 8865 H 837.633 -2.22513 -1.26182 0
M  V30 8866 H 837.277 -4.2764 -2.74019 0
M  V30 8867 H 837.207 -3.21592 -4.16997 0
M  V30 8868 H 839.698 -2.6142 -2.72888 0
M  V30 8869 H 840.011 -5.78 -5.12968 0
M  V30 8870 H 838.356 -5.19349 -4.61846 0
M  V30 8871 H 841.547 -3.29849 -3.3214 0
M  V30 8872 H 841.72 -4.74196 -4.41635 0
M  V30 8873 N 835.127 1.22348 -0.993418 0
M  V30 8874 C 836.375 1.90733 -0.668246 0
M  V30 8875 C 836.696 1.77732 0.802261 0
M  V30 8876 O 835.966 1.16486 1.57505 0
M  V30 8877 H 834.546 0.705966 -0.244174 0
M  V30 8878 H 837.208 1.48691 -1.26004 0
M  V30 8879 H 836.304 2.97883 -0.931239 0
M  V30 8880 N 836.605 0.766683 1.37694 0
M  V30 8881 C 837.568 0.155849 2.2867 0
M  V30 8882 C 838.568 -0.633509 1.47795 0
M  V30 8883 O 839.758 -0.457844 1.68076 0
M  V30 8884 C 836.89 -0.786965 3.31692 0
M  V30 8885 H 838.083 0.957748 2.84196 0
M  V30 8886 H 835.636 0.534554 1.46875 0
M  V30 8887 H 836.371 -1.61406 2.8128 0
M  V30 8888 H 836.156 -0.223182 3.91464 0
M  V30 8889 H 837.646 -1.20994 3.99688 0
M  V30 8890 N 838.083 -1.48885 0.516809 0
M  V30 8891 C 839.499 -1.58651 0.173788 0
M  V30 8892 C 839.699 -1.52033 -1.32243 0
M  V30 8893 O 838.755 -1.40251 -2.09967 0
M  V30 8894 C 840.068 -2.90816 0.764628 0
M  V30 8895 C 841.616 -3.04316 0.732164 0
M  V30 8896 C 842.091 -4.39123 1.30135 0
M  V30 8897 N 843.582 -4.45656 1.26273 0
M  V30 8898 C 844.317 -5.48446 1.67317 0
M  V30 8899 N 843.813 -6.58258 2.16028 0
M  V30 8900 N 845.606 -5.39251 1.58635 0
M  V30 8901 H 837.757 -1.5143 1.48939 0
M  V30 8902 H 840.02 -0.718243 0.618733 0
M  V30 8903 H 839.726 -3.01275 1.81456 0
M  V30 8904 H 839.6 -3.76473 0.234113 0
M  V30 8905 H 841.987 -2.93478 -0.308975 0
M  V30 8906 H 842.068 -2.20303 1.3 0
M  V30 8907 H 841.712 -4.50714 2.34135 0
M  V30 8908 H 841.642 -5.21801 0.709305 0
M  V30 8909 H 844.133 -3.66879 0.906006 0
M  V30 8910 H 844.446 -7.32811 2.45374 0
M  V30 8911 H 842.791 -6.59257 2.20013 0
M  V30 8912 H 845.982 -4.52354 1.20387 0
M  V30 8913 H 846.155 -6.19229 1.90944 0
M  V30 8914 N 839.561 -0.251338 -1.55583 0
M  V30 8915 C 840.524 0.63305 -2.20284 0
M  V30 8916 C 841.524 1.09941 -1.17344 0
M  V30 8917 O 842.714 1.00341 -1.42399 0
M  V30 8918 C 839.846 1.8706 -2.84993 0
M  V30 8919 H 841.039 0.0684846 -2.99822 0
M  V30 8920 H 838.592 -0.00181653 -1.563 0
M  V30 8921 H 839.327 2.47629 -2.09405 0
M  V30 8922 H 839.112 1.54436 -3.60405 0
M  V30 8923 H 840.602 2.50004 -3.34496 0
M  V30 8924 N 841.039 1.57585 0.0217189 0
M  V30 8925 C 842.264 1.94267 0.726309 0
M  V30 8926 C 842.689 0.851904 1.67703 0
M  V30 8927 O 842.047 -0.191792 1.80283 0
M  V30 8928 C 842.095 3.30023 1.45318 0
M  V30 8929 O 841.199 3.22791 2.5667 0
M  V30 8930 H 840.54 0.634777 0.194818 0
M  V30 8931 H 843.07 2.04585 -0.0249985 0
M  V30 8932 H 843.08 3.65084 1.82147 0
M  V30 8933 H 841.755 4.08972 0.755962 0
M  V30 8934 H 840.332 2.99373 2.2233 0
M  V30 8935 N 842.517 -0.29412 1.54831 0
M  V30 8936 C 843.928 -0.866651 1.65366 0
M  V30 8937 C 844.279 -1.87834 0.56681 0
M  V30 8938 O 843.404 -2.14374 -0.295389 0
M  V30 8939 C 843.999 -1.57869 2.99771 0
M  V30 8940 C 842.558 -2.09954 3.12404 0
M  V30 8941 C 841.705 -0.934492 2.6108 0
M  V30 8942 H 844.656 -0.0709551 1.58541 0
M  V30 8943 H 844.677 -2.44462 2.91579 0
M  V30 8944 H 844.189 -0.84212 3.78853 0
M  V30 8945 H 842.29 -2.86637 2.38055 0
M  V30 8946 H 842.403 -2.32934 4.18663 0
M  V30 8947 H 840.767 -1.32199 2.17705 0
M  V30 8948 H 841.55 -0.211768 3.42646 0
M  V30 8949 N 843.995 -1.47404 -0.557645 0
M  V30 8950 C 845.411 -1.32913 -0.88353 0
M  V30 8951 C 845.611 -0.31929 -1.98954 0
M  V30 8952 O 844.667 0.26934 -2.51059 0
M  V30 8953 C 845.98 -2.72229 -1.27718 0
M  V30 8954 C 847.528 -2.8051 -1.38863 0
M  V30 8955 C 848.003 -4.20466 -1.81583 0
M  V30 8956 N 849.494 -4.23005 -1.88735 0
M  V30 8957 C 850.229 -5.2821 -2.23118 0
M  V30 8958 N 849.725 -6.4372 -2.56117 0
M  V30 8959 N 851.518 -5.15588 -2.23888 0
M  V30 8960 H 843.669 -2.11698 0.172557 0
M  V30 8961 H 845.932 -0.947889 0.0145334 0
M  V30 8962 H 845.638 -3.47556 -0.538329 0
M  V30 8963 H 845.512 -3.03971 -2.23342 0
M  V30 8964 H 847.899 -2.05457 -2.11829 0
M  V30 8965 H 847.98 -2.52423 -0.414274 0
M  V30 8966 H 847.624 -4.96025 -1.09187 0
M  V30 8967 H 847.554 -4.45977 -2.80021 0
M  V30 8968 H 850.045 -3.39674 -1.65621 0
M  V30 8969 H 850.358 -7.19754 -2.81378 0
M  V30 8970 H 848.703 -6.47041 -2.53698 0
M  V30 8971 H 851.894 -4.24374 -1.97546 0
M  V30 8972 H 852.067 -5.97685 -2.50353 0
M  V30 8973 N 845.473 0.80434 -1.35529 0
M  V30 8974 C 846.701 1.59283 -1.32048 0
M  V30 8975 C 847.116 1.88527 0.101556 0
M  V30 8976 O 846.473 1.48975 1.05417 0
M  V30 8977 C 846.524 2.92276 -2.12737 0
M  V30 8978 O 846.245 2.64299 -3.49396 0
M  V30 8979 C 847.746 3.86631 -2.16867 0
M  V30 8980 H 844.966 0.494523 -0.453528 0
M  V30 8981 H 847.51 0.999415 -1.78415 0
M  V30 8982 H 845.665 3.48125 -1.69964 0
M  V30 8983 H 846.079 3.4923 -3.91329 0
M  V30 8984 H 847.553 4.77053 -2.77712 0
M  V30 8985 H 848.03 4.23384 -1.16803 0
M  V30 8986 H 848.636 3.36717 -2.59811 0
M  V30 8987 N 846.951 1.19563 1.02676 0
M  V30 8988 C 847.881 0.959024 2.12897 0
M  V30 8989 C 848.862 -0.108382 1.69754 0
M  V30 8990 O 850.047 0.0470698 1.94143 0
M  V30 8991 C 847.177 0.499211 3.43693 0
M  V30 8992 C 846.131 1.5087 4.00528 0
M  V30 8993 C 845.457 0.905884 5.2697 0
M  V30 8994 C 846.757 2.88954 4.3509 0
M  V30 8995 H 848.451 1.88084 2.32948 0
M  V30 8996 H 845.997 0.905731 1.11949 0
M  V30 8997 H 847.95 0.320965 4.20176 0
M  V30 8998 H 846.674 -0.458205 3.2337 0
M  V30 8999 H 845.333 1.67413 3.26142 0
M  V30 9000 H 844.981 -0.0591506 5.02965 0
M  V30 9001 H 844.681 1.58 5.65959 0
M  V30 9002 H 846.205 0.73848 6.06118 0
M  V30 9003 H 847.619 2.75981 5.02501 0
M  V30 9004 H 846.016 3.53177 4.85166 0
M  V30 9005 H 847.086 3.41447 3.44299 0
M  V30 9006 N 848.429 -1.21819 0.999893 0
M  V30 9007 C 849.377 -2.26027 0.549047 0
M  V30 9008 C 850.371 -1.64516 -0.403826 0
M  V30 9009 O 851.577 -1.77878 -0.275578 0
M  V30 9010 H 847.952 -0.734958 0.159185 0
M  V30 9011 H 849.923 -2.61398 1.43923 0
M  V30 9012 C 848.672 -3.47514 -0.11369 0
M  V30 9013 H 847.995 -3.95112 0.610482 0
M  V30 9014 H 849.435 -4.22179 -0.3925 0
M  V30 9015 C 847.894 -3.08614 -1.35126 0
M  V30 9016 O 848.424 -3.1864 -2.44605 0
M  V30 9017 N 846.63 -2.63327 -1.22911 0
M  V30 9018 H 846.177 -2.55369 -0.338288 0
M  V30 9019 H 846.135 -2.37668 -2.05818 0
M  V30 9020 N 849.908 -0.773975 -1.37286 0
M  V30 9021 C 850.838 -0.175782 -2.32837 0
M  V30 9022 C 851.819 0.680603 -1.5589 0
M  V30 9023 O 853.004 0.617607 -1.84117 0
M  V30 9024 C 850.134 0.702388 -3.40123 0
M  V30 9025 C 849.088 -0.0528687 -4.27967 0
M  V30 9026 C 848.414 0.944891 -5.26285 0
M  V30 9027 C 849.714 -1.23316 -5.07534 0
M  V30 9028 H 851.408 -0.974016 -2.83114 0
M  V30 9029 H 848.954 -0.469826 -1.3612 0
M  V30 9030 H 850.907 1.13069 -4.05947 0
M  V30 9031 H 849.631 1.53316 -2.88378 0
M  V30 9032 H 848.29 -0.461978 -3.63678 0
M  V30 9033 H 847.938 1.77028 -4.70819 0
M  V30 9034 H 847.638 0.444079 -5.8592 0
M  V30 9035 H 849.162 1.37209 -5.94984 0
M  V30 9036 H 850.576 -0.881395 -5.66484 0
M  V30 9037 H 848.973 -1.66621 -5.76504 0
M  V30 9038 H 850.043 -2.03617 -4.40077 0
M  V30 9039 N 851.386 1.48609 -0.524698 0
M  V30 9040 C 852.611 2.07398 0.00952139 0
M  V30 9041 C 853.036 1.37939 1.27884 0
M  V30 9042 O 852.394 0.443633 1.75788 0
M  V30 9043 C 852.442 3.59916 0.221956 0
M  V30 9044 O 851.546 3.91647 1.29175 0
M  V30 9045 H 850.887 0.662981 -0.0367729 0
M  V30 9046 H 853.417 1.91092 -0.7311 0
M  V30 9047 H 853.427 4.05552 0.446236 0
M  V30 9048 H 852.102 4.09876 -0.705306 0
M  V30 9049 H 850.679 3.57796 1.05055 0
M  V30 9050 N 852.864 0.259585 1.55447 0
M  V30 9051 C 853.796 -0.667548 2.19263 0
M  V30 9052 C 854.809 -1.12925 1.17268 0
M  V30 9053 O 855.998 -1.05384 1.44071 0
M  V30 9054 C 853.098 -1.92066 2.7922 0
M  V30 9055 C 852.271 -1.60832 4.06758 0
M  V30 9056 C 851.33 -2.71231 4.50911 0
M  V30 9057 O 850.356 -2.38077 5.17019 0
M  V30 9058 N 851.558 -4.00984 4.19752 0
M  V30 9059 H 854.323 -0.121449 2.99454 0
M  V30 9060 H 851.884 0.0800519 1.61702 0
M  V30 9061 H 853.876 -2.65186 3.0571 0
M  V30 9062 H 852.446 -2.37621 2.03113 0
M  V30 9063 H 851.666 -0.711685 3.87722 0
M  V30 9064 H 852.954 -1.37445 4.89884 0
M  V30 9065 H 852.352 -4.30748 3.66706 0
M  V30 9066 H 850.909 -4.7053 4.51048 0
M  V30 9067 N 854.342 -1.57594 -0.0133615 0
M  V30 9068 C 855.272 -2.10611 -1.00823 0
M  V30 9069 C 856.253 -1.01217 -1.36708 0
M  V30 9070 O 857.438 -1.28827 -1.45318 0
M  V30 9071 C 854.568 -2.59844 -2.30431 0
M  V30 9072 C 853.522 -3.73644 -2.08745 0
M  V30 9073 C 852.848 -4.09141 -3.4425 0
M  V30 9074 C 854.148 -5.01454 -1.46086 0
M  V30 9075 H 855.842 -2.93985 -0.566849 0
M  V30 9076 H 853.388 -1.41423 -0.271219 0
M  V30 9077 H 855.341 -2.95557 -3.00373 0
M  V30 9078 H 854.065 -1.73573 -2.76658 0
M  V30 9079 H 852.724 -3.38303 -1.41232 0
M  V30 9080 H 852.372 -3.19914 -3.88155 0
M  V30 9081 H 852.072 -4.85802 -3.3056 0
M  V30 9082 H 853.596 -4.47402 -4.15528 0
M  V30 9083 H 855.01 -5.35024 -2.05966 0
M  V30 9084 H 853.407 -5.82832 -1.42924 0
M  V30 9085 H 854.477 -4.83003 -0.428471 0
M  V30 9086 N 855.82 0.285905 -1.54985 0
M  V30 9087 C 857.045 1.04207 -1.7932 0
M  V30 9088 C 857.47 1.79622 -0.558343 0
M  V30 9089 O 856.828 1.74506 0.491661 0
M  V30 9090 C 856.876 1.98648 -3.0095 0
M  V30 9091 O 855.98 3.07207 -2.75132 0
M  V30 9092 H 855.321 0.298596 -0.593074 0
M  V30 9093 H 857.851 0.318736 -2.02102 0
M  V30 9094 H 857.861 2.4084 -3.29333 0
M  V30 9095 H 856.536 1.43167 -3.90482 0
M  V30 9096 H 855.113 2.69423 -2.57809 0
M  V30 9097 N 857.298 1.47698 0.54982 0
M  V30 9098 C 858.545 1.54702 1.30665 0
M  V30 9099 C 858.873 0.212418 1.93337 0
M  V30 9100 O 858.128 -0.79543 1.78805 0
M  V30 9101 C 858.427 2.61903 2.4319 0
M  V30 9102 C 858.093 4.04953 1.98302 0
M  V30 9103 C 856.755 4.43893 1.85776 0
M  V30 9104 C 859.107 4.94682 1.64133 0
M  V30 9105 C 856.435 5.70387 1.37388 0
M  V30 9106 C 858.787 6.21646 1.17214 0
M  V30 9107 C 857.451 6.5946 1.0329 0
M  V30 9108 H 856.721 0.566096 0.478139 0
M  V30 9109 H 859.368 1.8133 0.615767 0
M  V30 9110 H 857.673 2.2906 3.17866 0
M  V30 9111 H 859.37 2.64543 3.0136 0
M  V30 9112 H 855.96 3.74191 2.08995 0
M  V30 9113 H 860.144 4.65291 1.72679 0
M  V30 9114 H 855.4 5.98427 1.25278 0
M  V30 9115 H 859.574 6.90581 0.898391 0
M  V30 9116 H 857.201 7.57367 0.655735 0
M  V30 9117 N 858.776 -0.797141 1.35954 0
M  V30 9118 C 859.726 -1.89899 1.26184 0
M  V30 9119 C 860.71 -1.60152 0.155007 0
M  V30 9120 O 861.902 -1.72715 0.387108 0
M  V30 9121 C 859.031 -3.2699 1.04559 0
M  V30 9122 C 858.117 -3.62772 2.19675 0
M  V30 9123 N 858.508 -3.6992 3.44953 0
M  V30 9124 C 856.806 -3.92786 2.1127 0
M  V30 9125 C 857.507 -4.01718 4.20711 0
M  V30 9126 N 856.483 -4.16298 3.49567 0
M  V30 9127 H 860.285 -1.9364 2.2109 0
M  V30 9128 H 857.799 -0.992246 1.28562 0
M  V30 9129 H 859.796 -4.0578 0.956474 0
M  V30 9130 H 858.456 -3.24529 0.105467 0
M  V30 9131 H 859.467 -3.52759 3.79185 0
M  V30 9132 H 856.144 -3.98295 1.25168 0
M  V30 9133 H 857.534 -4.14237 5.29016 0
M  V30 9134 N 860.254 -1.20106 -1.0204 0
M  V30 9135 C 861.67 -0.955099 -1.27867 0
M  V30 9136 C 861.87 0.367595 -1.98119 0
M  V30 9137 O 860.926 1.09705 -2.27423 0
M  V30 9138 C 862.239 -2.13507 -2.11744 0
M  V30 9139 C 863.787 -2.17563 -2.25023 0
M  V30 9140 C 864.262 -3.35035 -3.12275 0
M  V30 9141 N 865.753 -3.35024 -3.19864 0
M  V30 9142 C 866.488 -4.22566 -3.8759 0
M  V30 9143 N 865.984 -5.20278 -4.57474 0
M  V30 9144 N 867.777 -4.10418 -3.84075 0
M  V30 9145 H 859.928 -2.05193 -0.54861 0
M  V30 9146 H 862.191 -0.897689 -0.304728 0
M  V30 9147 H 861.897 -3.09275 -1.67456 0
M  V30 9148 H 861.771 -2.11281 -3.12474 0
M  V30 9149 H 864.158 -1.22359 -2.68537 0
M  V30 9150 H 864.239 -2.23838 -1.23815 0
M  V30 9151 H 863.883 -4.30522 -2.69468 0
M  V30 9152 H 863.813 -3.25996 -4.13563 0
M  V30 9153 H 866.304 -2.64299 -2.701 0
M  V30 9154 H 866.617 -5.83408 -5.06809 0
M  V30 9155 H 864.962 -5.24219 -4.56311 0
M  V30 9156 H 868.153 -3.33353 -3.28623 0
M  V30 9157 H 868.326 -4.78854 -4.36581 0
M  V30 9158 N 861.732 1.21287 -1.00634 0
M  V30 9159 C 862.978 1.90671 -0.690822 0
M  V30 9160 C 863.311 1.77996 0.776592 0
M  V30 9161 O 862.586 1.15748 1.5631 0
M  V30 9162 C 862.869 3.42426 -1.11428 0
M  V30 9163 C 862.722 3.64086 -2.64124 0
M  V30 9164 C 864.041 4.34851 -0.677686 0
M  V30 9165 H 861.16 0.692419 -0.252439 0
M  V30 9166 H 863.802 1.42893 -1.25226 0
M  V30 9167 H 861.952 3.83249 -0.636586 0
M  V30 9168 H 863.624 3.32582 -3.19667 0
M  V30 9169 H 861.867 3.07906 -3.05576 0
M  V30 9170 H 862.538 4.7042 -2.88806 0
M  V30 9171 H 865.014 4.01619 -1.0882 0
M  V30 9172 H 863.89 5.39675 -1.00213 0
M  V30 9173 H 864.151 4.4009 0.421125 0
M  V30 9174 N 863.21 0.781244 1.36873 0
M  V30 9175 C 864.487 0.274217 1.93668 0
M  V30 9176 C 864.867 -1.2323 1.71399 0
M  V30 9177 O 864.215 -2.01993 1.06822 0
M  V30 9178 C 864.425 0.657939 3.42742 0
M  V30 9179 C 865.773 0.63307 4.19854 0
M  V30 9180 O 866.797 0.597909 3.51146 0
M  V30 9181 O 865.656 0.668636 5.42394 0
M  V30 9182 H 862.75 0.0658059 0.824378 0
M  V30 9183 H 865.296 0.863238 1.46104 0
M  V30 9184 H 864.068 1.69728 3.52573 0
M  V30 9185 H 863.691 0.0423678 3.97577 0
M  V30 9186 N 864.689 -1.48329 0.532571 0
M  V30 9187 C 865.621 -2.27652 -0.265931 0
M  V30 9188 C 866.634 -1.35522 -0.902083 0
M  V30 9189 O 867.823 -1.60552 -0.780088 0
M  V30 9190 C 864.923 -3.0899 -1.39207 0
M  V30 9191 C 864.096 -4.28915 -0.857349 0
M  V30 9192 C 863.155 -4.92044 -1.86493 0
M  V30 9193 O 862.181 -5.51181 -1.42084 0
M  V30 9194 N 863.383 -4.84518 -3.19723 0
M  V30 9195 H 866.148 -2.96821 0.414389 0
M  V30 9196 H 863.709 -1.57684 0.367066 0
M  V30 9197 H 865.701 -3.48091 -2.06433 0
M  V30 9198 H 864.271 -2.42224 -1.97601 0
M  V30 9199 H 863.491 -3.94199 -0.00901765 0
M  V30 9200 H 864.779 -5.0654 -0.479025 0
M  V30 9201 H 864.177 -4.37628 -3.58467 0
M  V30 9202 H 862.734 -5.27712 -3.82575 0
M  V30 9203 N 866.167 -0.267825 -1.55308 0
M  V30 9204 C 867.114 0.6228 -2.22238 0
M  V30 9205 C 868.084 1.15536 -1.19334 0
M  V30 9206 O 869.269 1.206 -1.47852 0
M  V30 9207 C 866.409 1.80447 -2.94164 0
M  V30 9208 C 865.522 1.30646 -4.11771 0
M  V30 9209 C 864.657 2.44935 -4.7136 0
M  V30 9210 C 863.696 1.92099 -5.81175 0
M  V30 9211 N 862.833 2.99834 -6.34857 0
M  V30 9212 H 867.673 0.0453874 -2.97965 0
M  V30 9213 H 865.21 0.0106371 -1.47096 0
M  V30 9214 H 867.168 2.49896 -3.34078 0
M  V30 9215 H 865.798 2.35403 -2.20874 0
M  V30 9216 H 864.85 0.505314 -3.77029 0
M  V30 9217 H 866.162 0.879409 -4.90987 0
M  V30 9218 H 865.316 3.2239 -5.13955 0
M  V30 9219 H 864.055 2.90951 -3.91406 0
M  V30 9220 H 863.06 1.13122 -5.38037 0
M  V30 9221 H 864.285 1.47027 -6.62993 0
M  V30 9222 H 862.231 3.45246 -5.578 0
M  V30 9223 H 862.148 2.61524 -7.09324 0
M  V30 9224 H 863.416 3.77286 -6.82111 0
M  V30 9225 N 867.645 1.57599 0.00500368 0
M  V30 9226 C 868.555 2.11532 1.01446 0
M  V30 9227 C 869.571 1.05941 1.3803 0
M  V30 9228 O 870.747 1.37815 1.46864 0
M  V30 9229 C 867.812 2.60382 2.28915 0
M  V30 9230 C 866.873 3.80554 1.98689 0
M  V30 9231 C 866.106 4.27064 3.20081 0
M  V30 9232 O 866.329 3.72939 4.31593 0
M  V30 9233 O 865.263 5.1927 3.04371 0
M  V30 9234 H 869.089 2.97993 0.586011 0
M  V30 9235 H 866.674 1.47718 0.223519 0
M  V30 9236 H 868.556 2.92024 3.03809 0
M  V30 9237 H 867.231 1.77022 2.71007 0
M  V30 9238 H 866.138 3.53893 1.21286 0
M  V30 9239 H 867.471 4.64972 1.61437 0
M  V30 9240 N 869.123 -0.277682 1.55134 0
M  V30 9241 C 870.372 -1.00766 1.74726 0
M  V30 9242 C 870.685 -1.87617 0.553092 0
M  V30 9243 O 871.891 -2.64058 0.631318 0
M  V30 9244 C 870.347 -1.84147 3.09221 0
M  V30 9245 C 869.955 -1.02186 4.3619 0
M  V30 9246 C 871.699 -2.56604 3.38164 0
M  V30 9247 C 869.606 -1.84978 5.61727 0
M  V30 9248 H 868.536 -0.379948 0.651273 0
M  V30 9249 H 871.187 -0.263543 1.81598 0
M  V30 9250 H 869.569 -2.62637 2.96375 0
M  V30 9251 H 870.743 -0.281459 4.5994 0
M  V30 9252 H 869.058 -0.412054 4.14356 0
M  V30 9253 H 871.655 -3.18942 4.29162 0
M  V30 9254 H 871.998 -3.26647 2.58085 0
M  V30 9255 H 872.531 -1.85147 3.52087 0
M  V30 9256 H 869.27 -1.19365 6.4454 0
M  V30 9257 H 868.79 -2.56628 5.42128 0
M  V30 9258 H 870.469 -2.42458 5.99853 0
M  V30 9259 N 870.601 -1.47988 -0.541979 0
M  V30 9260 C 871.829 -1.59034 -1.32347 0
M  V30 9261 C 872.244 -0.246123 -1.87189 0
M  V30 9262 O 871.601 0.762889 -1.6579 0
M  V30 9263 C 871.652 -2.62759 -2.48274 0
M  V30 9264 O 871.373 -3.91963 -1.95695 0
M  V30 9265 C 872.874 -2.84133 -3.4027 0
M  V30 9266 H 870.094 -0.536574 -0.402901 0
M  V30 9267 H 872.638 -1.93725 -0.655045 0
M  V30 9268 H 870.793 -2.3096 -3.11025 0
M  V30 9269 H 871.207 -4.48769 -2.7149 0
M  V30 9270 H 872.681 -3.60538 -4.17991 0
M  V30 9271 H 873.158 -1.92512 -3.9476 0
M  V30 9272 H 873.764 -3.17188 -2.83322 0
M  V30 9273 N 872.079 0.78992 -1.36375 0
M  V30 9274 C 873.011 1.91113 -1.26524 0
M  V30 9275 C 874.024 1.61747 -0.184851 0
M  V30 9276 O 875.213 1.73004 -0.439524 0
M  V30 9277 C 872.313 3.25908 -0.92937 0
M  V30 9278 C 871.486 3.83057 -2.11154 0
M  V30 9279 C 870.545 4.96289 -1.74881 0
M  V30 9280 O 869.571 5.12834 -2.46962 0
M  V30 9281 N 870.773 5.76478 -0.682193 0
M  V30 9282 H 873.538 2.00085 -2.23128 0
M  V30 9283 H 871.099 0.968165 -1.29762 0
M  V30 9284 H 873.091 3.99151 -0.667884 0
M  V30 9285 H 871.661 3.12556 -0.0524843 0
M  V30 9286 H 870.881 3.01808 -2.53586 0
M  V30 9287 H 872.169 4.1797 -2.90135 0
M  V30 9288 H 871.567 5.65638 -0.0836661 0
M  V30 9289 H 870.124 6.50026 -0.480529 0
M  V30 9290 N 873.557 1.20646 1.01402 0
M  V30 9291 C 874.487 0.98155 2.11867 0
M  V30 9292 C 875.468 -0.0903712 1.6986 0
M  V30 9293 O 876.653 0.0676586 1.94082 0
M  V30 9294 C 873.783 0.535636 3.43145 0
M  V30 9295 C 872.737 1.55109 3.98905 0
M  V30 9296 C 872.063 0.961725 5.2598 0
M  V30 9297 C 873.363 2.93552 4.32001 0
M  V30 9298 H 875.057 1.90544 2.3094 0
M  V30 9299 H 872.603 0.917554 1.10982 0
M  V30 9300 H 874.556 0.365512 4.19812 0
M  V30 9301 H 873.28 -0.423882 3.23838 0
M  V30 9302 H 871.939 1.70862 3.24348 0
M  V30 9303 H 871.587 -0.00580108 5.03 0
M  V30 9304 H 871.287 1.63993 5.64252 0
M  V30 9305 H 872.811 0.802726 6.053 0
M  V30 9306 H 874.225 2.81295 4.99546 0
M  V30 9307 H 872.622 3.58303 4.81393 0
M  V30 9308 H 873.692 3.4508 3.40658 0
M  V30 9309 N 875.035 -1.20752 1.01276 0
M  V30 9310 C 876.26 -1.94547 0.718769 0
M  V30 9311 C 876.685 -1.7404 -0.713563 0
M  V30 9312 O 876.043 -1.03221 -1.49047 0
M  V30 9313 C 876.091 -3.44823 1.05497 0
M  V30 9314 O 875.195 -4.12072 0.164516 0
M  V30 9315 H 874.536 -0.607931 0.267051 0
M  V30 9316 H 877.066 -1.53292 1.35509 0
M  V30 9317 H 877.076 -3.95427 1.00507 0
M  V30 9318 H 875.751 -3.59072 2.09858 0
M  V30 9319 H 874.328 -3.71909 0.271615 0
M  V30 9320 N 876.513 -0.788492 -1.36457 0
M  V30 9321 C 877.463 -0.159377 -2.27442 0
M  V30 9322 C 878.447 0.656146 -1.46913 0
M  V30 9323 O 879.639 0.516372 -1.693 0
M  V30 9324 C 876.768 0.705703 -3.35968 0
M  V30 9325 C 875.854 -0.11856 -4.23934 0
M  V30 9326 N 876.245 -1.1726 -4.9202 0
M  V30 9327 C 874.543 0.102752 -4.45882 0
M  V30 9328 C 875.244 -1.6743 -5.57083 0
M  V30 9329 N 874.22 -0.983682 -5.34626 0
M  V30 9330 H 878.022 -0.96614 -2.77566 0
M  V30 9331 H 875.536 -0.627864 -1.49772 0
M  V30 9332 H 877.533 1.17231 -4.00078 0
M  V30 9333 H 876.193 1.51102 -2.87399 0
M  V30 9334 H 877.204 -1.55502 -4.94004 0
M  V30 9335 H 873.881 0.878651 -4.08149 0
M  V30 9336 H 875.271 -2.55423 -6.21457 0
M  V30 9337 N 877.991 1.48044 -0.54043 0
M  V30 9338 C 878.921 2.32597 0.205178 0
M  V30 9339 C 879.902 1.42748 0.925041 0
M  V30 9340 O 881.087 1.71624 0.908784 0
M  V30 9341 C 878.217 3.24175 1.24612 0
M  V30 9342 C 877.171 4.23131 0.64376 0
M  V30 9343 C 876.497 5.03915 1.78812 0
M  V30 9344 C 877.797 5.20831 -0.39144 0
M  V30 9345 H 879.491 2.95184 -0.500676 0
M  V30 9346 H 877.037 1.41948 -0.242225 0
M  V30 9347 H 878.99 3.82158 1.77576 0
M  V30 9348 H 877.714 2.59608 1.98169 0
M  V30 9349 H 876.373 3.66349 0.135554 0
M  V30 9350 H 876.021 4.35765 2.51232 0
M  V30 9351 H 875.721 5.709 1.39094 0
M  V30 9352 H 877.245 5.64753 2.32134 0
M  V30 9353 H 878.659 5.73277 0.0515064 0
M  V30 9354 H 877.056 5.95926 -0.706569 0
M  V30 9355 H 878.126 4.6733 -1.29345 0
M  V30 9356 N 879.47 0.276058 1.55163 0
M  V30 9357 C 880.718 -0.339782 1.99223 0
M  V30 9358 C 881.039 -1.56307 1.16589 0
M  V30 9359 O 880.309 -1.94225 0.25564 0
M  V30 9360 H 878.889 -0.128534 0.735859 0
M  V30 9361 H 881.551 0.381612 1.91128 0
M  V30 9362 H 880.647 -0.629 3.05696 0
M  V30 9363 N 880.948 -1.576 0.00335426 0
M  V30 9364 C 881.88 -2.0549 -1.01521 0
M  V30 9365 C 882.893 -0.973441 -1.30491 0
M  V30 9366 O 884.082 -1.25017 -1.27409 0
M  V30 9367 C 881.182 -2.44272 -2.34914 0
M  V30 9368 C 880.355 -3.75191 -2.24835 0
M  V30 9369 C 879.414 -4.00804 -3.40944 0
M  V30 9370 O 878.44 -4.71423 -3.18981 0
M  V30 9371 N 879.642 -3.48961 -4.63904 0
M  V30 9372 H 882.407 -2.93493 -0.60678 0
M  V30 9373 H 879.968 -1.60851 -0.18396 0
M  V30 9374 H 881.96 -2.58518 -3.11369 0
M  V30 9375 H 880.53 -1.6177 -2.67487 0
M  V30 9376 H 879.75 -3.70989 -1.3327 0
M  V30 9377 H 881.038 -4.61013 -2.15277 0
M  V30 9378 H 880.436 -2.9178 -4.84645 0
M  V30 9379 H 878.993 -3.68531 -5.37613 0
M  V30 9380 N 882.426 0.269451 -1.5528 0
M  V30 9381 C 883.674 0.998604 -1.75705 0
M  V30 9382 C 883.995 1.86691 -0.563175 0
M  V30 9383 O 883.265 1.91305 0.421811 0
M  V30 9384 H 881.845 0.371698 -0.647958 0
M  V30 9385 H 884.507 0.292826 -1.92688 0
M  V30 9386 H 883.603 1.63348 -2.6594 0
M  V30 9387 N 883.904 1.48273 0.534124 0
M  V30 9388 C 885.132 1.59734 1.31501 0
M  V30 9389 C 885.547 0.256047 1.87056 0
M  V30 9390 O 884.904 -0.754086 1.66192 0
M  V30 9391 C 884.955 2.64072 2.46877 0
M  V30 9392 O 884.676 3.92995 1.93613 0
M  V30 9393 C 886.177 2.85933 3.38758 0
M  V30 9394 H 883.397 0.538703 0.40005 0
M  V30 9395 H 885.941 1.9407 0.644762 0
M  V30 9396 H 884.096 2.32606 3.09795 0
M  V30 9397 H 884.51 4.50203 2.69106 0
M  V30 9398 H 885.984 3.62749 4.16073 0
M  V30 9399 H 886.461 1.94603 3.93734 0
M  V30 9400 H 887.067 3.18687 2.81636 0
M  V30 9401 N 885.382 -0.782676 1.36792 0
M  V30 9402 C 886.798 -1.08169 1.17352 0
M  V30 9403 C 886.998 -2.015 0.0022037 0
M  V30 9404 O 886.054 -2.43692 -0.661093 0
M  V30 9405 C 887.367 -1.68969 2.48737 0
M  V30 9406 C 888.915 -1.81278 2.55161 0
M  V30 9407 C 889.39 -2.45492 3.86649 0
M  V30 9408 N 890.881 -2.52954 3.88032 0
M  V30 9409 C 891.616 -3.03465 4.86515 0
M  V30 9410 N 891.112 -3.54232 5.95392 0
M  V30 9411 N 892.905 -3.02239 4.73928 0
M  V30 9412 H 885.056 -0.162757 2.11775 0
M  V30 9413 H 887.319 -0.134823 0.938364 0
M  V30 9414 H 887.025 -1.07859 3.34753 0
M  V30 9415 H 886.899 -2.68397 2.65034 0
M  V30 9416 H 889.286 -2.41524 1.69559 0
M  V30 9417 H 889.367 -0.806367 2.42758 0
M  V30 9418 H 889.011 -1.85889 4.7266 0
M  V30 9419 H 888.941 -3.46718 3.96351 0
M  V30 9420 H 891.432 -2.17014 3.09376 0
M  V30 9421 H 891.745 -3.91145 6.66503 0
M  V30 9422 H 890.09 -3.52366 5.99052 0
M  V30 9423 H 893.281 -2.61871 3.87996 0
M  V30 9424 H 893.454 -3.41295 5.50837 0
M  V30 9425 N 886.86 -1.21182 -1.00761 0
M  V30 9426 C 888.088 -1.05335 -1.78079 0
M  V30 9427 C 888.503 0.396988 -1.84579 0
M  V30 9428 O 887.86 1.27548 -1.30529 0
M  V30 9429 C 887.911 -1.64089 -3.22113 0
M  V30 9430 O 887.632 -3.03448 -3.15992 0
M  V30 9431 C 889.133 -1.53318 -4.15943 0
M  V30 9432 H 886.353 -0.37005 -0.559736 0
M  V30 9433 H 888.897 -1.60463 -1.26775 0
M  V30 9434 H 887.052 -1.13059 -3.70535 0
M  V30 9435 H 887.466 -3.31492 -4.06465 0
M  V30 9436 H 888.94 -1.99174 -5.14814 0
M  V30 9437 H 889.417 -0.487166 -4.3649 0
M  V30 9438 H 890.023 -2.03582 -3.73409 0
M  V30 9439 N 888.338 1.20213 -1.01915 0
M  V30 9440 C 889.286 2.25125 -0.584936 0
M  V30 9441 C 890.28 1.65138 0.377602 0
M  V30 9442 O 891.486 1.78294 0.247245 0
M  V30 9443 H 887.861 0.732333 -0.170858 0
M  V30 9444 H 889.832 2.59075 -1.48063 0
M  V30 9445 C 888.581 3.47651 0.058389 0
M  V30 9446 H 887.904 3.9409 -0.673263 0
M  V30 9447 H 889.344 4.2275 0.325285 0
M  V30 9448 C 887.803 3.10725 1.30199 0
M  V30 9449 O 888.333 3.22491 2.39505 0
M  V30 9450 N 886.539 2.6525 1.18706 0
M  V30 9451 H 886.086 2.55875 0.297618 0
M  V30 9452 H 886.044 2.40913 2.02011 0
M  V30 9453 N 889.816 0.795718 1.36037 0
M  V30 9454 C 891.062 0.371574 1.99367 0
M  V30 9455 C 891.395 -1.0557 1.62999 0
M  V30 9456 O 890.67 -1.73051 0.887895 0
M  V30 9457 C 890.953 0.542622 3.55988 0
M  V30 9458 C 890.806 2.01404 4.0219 0
M  V30 9459 C 892.125 -0.0384527 4.40083 0
M  V30 9460 H 889.244 0.136483 0.724252 0
M  V30 9461 H 891.886 1.00323 1.61355 0
M  V30 9462 H 890.036 0.0049053 3.885 0
M  V30 9463 H 891.708 2.6133 3.80137 0
M  V30 9464 H 889.951 2.51439 3.53498 0
M  V30 9465 H 890.622 2.08466 5.11122 0
M  V30 9466 H 893.098 0.420634 4.13968 0
M  V30 9467 H 891.974 0.111214 5.48787 0
M  V30 9468 H 892.235 -1.13116 4.27384 0
M  V30 9469 N 891.294 -1.47756 0.548274 0
M  V30 9470 C 892.524 -2.06584 0.0254503 0
M  V30 9471 C 892.932 -1.40268 -1.26971 0
M  V30 9472 O 892.275 -0.49019 -1.77039 0
M  V30 9473 C 892.337 -3.58628 -0.250301 0
M  V30 9474 C 892.001 -4.4693 0.954087 0
M  V30 9475 C 892.998 -4.85592 1.85733 0
M  V30 9476 C 890.683 -4.88573 1.16624 0
M  V30 9477 C 892.677 -5.64686 2.95648 0
M  V30 9478 C 890.364 -5.67435 2.2685 0
M  V30 9479 C 891.362 -6.05401 3.16194 0
M  V30 9480 O 891.05 -6.82676 4.24511 0
M  V30 9481 H 890.782 -0.67489 0.0387264 0
M  V30 9482 H 893.336 -1.90876 0.758663 0
M  V30 9483 H 891.566 -3.72516 -1.03771 0
M  V30 9484 H 893.255 -3.9951 -0.717419 0
M  V30 9485 H 894.021 -4.54026 1.70544 0
M  V30 9486 H 889.9 -4.58494 0.480039 0
M  V30 9487 H 893.444 -5.9424 3.65411 0
M  V30 9488 H 889.341 -5.98413 2.42016 0
M  V30 9489 H 890.109 -7.01057 4.22447 0
M  V30 9490 N 892.772 -0.284283 -1.55015 0
M  V30 9491 C 893.682 0.60906 -2.26556 0
M  V30 9492 C 894.698 1.16246 -1.29472 0
M  V30 9493 O 895.874 1.1908 -1.62425 0
M  V30 9494 C 892.939 1.77246 -2.97968 0
M  V30 9495 C 892 1.25482 -4.10552 0
M  V30 9496 C 891.233 2.36277 -4.78549 0
M  V30 9497 O 891.456 3.55829 -4.45805 0
M  V30 9498 O 890.39 2.03914 -5.66306 0
M  V30 9499 H 894.216 0.0292298 -3.03686 0
M  V30 9500 H 891.801 -0.0513466 -1.49312 0
M  V30 9501 H 893.683 2.45062 -3.42815 0
M  V30 9502 H 892.358 2.33921 -2.23747 0
M  V30 9503 H 891.265 0.542859 -3.7014 0
M  V30 9504 H 892.598 0.733708 -4.86701 0
M  V30 9505 N 894.251 1.57596 -0.0117121 0
M  V30 9506 C 895.499 1.90694 0.669342 0
M  V30 9507 C 895.82 0.886999 1.73659 0
M  V30 9508 O 895.09 -0.0739779 1.9576 0
M  V30 9509 H 893.67 0.703846 0.250219 0
M  V30 9510 H 896.332 1.94821 -0.0554057 0
M  V30 9511 H 895.428 2.90802 1.13316 0
M  V30 9512 N 895.729 -0.261212 1.5542 0
M  V30 9513 C 897.145 -0.609012 1.47524 0
M  V30 9514 C 897.345 -1.88986 0.699042 0
M  V30 9515 O 896.401 -2.51517 0.222628 0
M  V30 9516 C 897.714 -0.725025 2.91828 0
M  V30 9517 C 899.262 -0.818302 3.02114 0
M  V30 9518 C 899.737 -0.965996 4.47697 0
M  V30 9519 N 901.228 -1.03123 4.51575 0
M  V30 9520 C 901.963 -1.16451 5.6145 0
M  V30 9521 N 901.459 -1.26425 6.81167 0
M  V30 9522 N 903.252 -1.19655 5.49217 0
M  V30 9523 H 895.403 0.579807 2.04333 0
M  V30 9524 H 897.666 0.198072 0.927077 0
M  V30 9525 H 897.372 0.145871 3.51397 0
M  V30 9526 H 897.246 -1.60156 3.41511 0
M  V30 9527 H 899.633 -1.67966 2.42634 0
M  V30 9528 H 899.714 0.0830895 2.55665 0
M  V30 9529 H 899.358 -0.109251 5.07782 0
M  V30 9530 H 899.288 -1.88221 4.91813 0
M  V30 9531 H 901.779 -0.966072 3.65343 0
M  V30 9532 H 902.092 -1.36462 7.60656 0
M  V30 9533 H 900.437 -1.23408 6.83956 0
M  V30 9534 H 903.628 -1.11501 4.54626 0
M  V30 9535 H 903.801 -1.29698 6.34888 0
M  V30 9536 N 897.207 -1.48554 -0.526253 0
M  V30 9537 C 898.137 -1.66252 -1.63959 0
M  V30 9538 C 899.118 -0.511351 -1.62232 0
M  V30 9539 O 900.303 -0.744322 -1.7937 0
M  V30 9540 C 897.433 -1.70556 -3.02536 0
M  V30 9541 C 896.387 -2.8521 -3.19123 0
M  V30 9542 C 895.713 -2.74606 -4.58798 0
M  V30 9543 C 897.013 -4.26463 -3.0154 0
M  V30 9544 H 898.707 -2.59459 -1.49404 0
M  V30 9545 H 896.253 -1.24862 -0.717326 0
M  V30 9546 H 898.206 -1.81524 -3.80298 0
M  V30 9547 H 896.93 -0.739297 -3.18123 0
M  V30 9548 H 895.589 -2.73802 -2.43779 0
M  V30 9549 H 895.237 -1.75941 -4.71226 0
M  V30 9550 H 894.937 -3.51544 -4.70841 0
M  V30 9551 H 896.461 -2.87548 -5.38655 0
M  V30 9552 H 897.875 -4.38685 -3.69091 0
M  V30 9553 H 896.272 -5.04428 -3.25073 0
M  V30 9554 H 897.342 -4.42667 -1.97925 0
M  V30 9555 N 898.685 0.775411 -1.37205 0
M  V30 9556 C 900.101 1.07546 -1.17924 0
M  V30 9557 C 900.301 2.01496 -0.0128897 0
M  V30 9558 O 899.357 2.44039 0.64816 0
M  V30 9559 C 900.67 1.67647 -2.49629 0
M  V30 9560 C 902.218 1.79923 -2.56119 0
M  V30 9561 C 902.693 2.43438 -3.87946 0
M  V30 9562 N 904.184 2.50893 -3.89368 0
M  V30 9563 C 904.919 3.00881 -4.88117 0
M  V30 9564 N 904.415 3.5107 -5.97262 0
M  V30 9565 N 906.208 2.99722 -4.75524 0
M  V30 9566 H 898.359 0.151524 -2.11859 0
M  V30 9567 H 900.622 0.129845 -0.939066 0
M  V30 9568 H 900.328 1.06082 -3.3532 0
M  V30 9569 H 900.202 2.66988 -2.66453 0
M  V30 9570 H 902.589 2.40621 -1.70838 0
M  V30 9571 H 902.67 0.793482 -2.43182 0
M  V30 9572 H 902.314 1.8338 -4.73639 0
M  V30 9573 H 902.244 3.44611 -3.98184 0
M  V30 9574 H 904.735 2.1537 -3.10522 0
M  V30 9575 H 905.048 3.87604 -6.68568 0
M  V30 9576 H 903.393 3.49184 -6.00912 0
M  V30 9577 H 906.584 2.5981 -3.8938 0
M  V30 9578 H 906.757 3.38369 -5.52639 0
M  V30 9579 N 900.163 1.21714 1.00117 0
M  V30 9580 C 901.409 1.03823 1.74208 0
M  V30 9581 C 901.742 -0.426733 1.89454 0
M  V30 9582 O 901.017 -1.31658 1.43166 0
M  V30 9583 C 901.3 1.74047 3.15246 0
M  V30 9584 C 901.153 3.28087 3.077 0
M  V30 9585 C 902.472 1.48614 4.14249 0
M  V30 9586 H 899.591 0.378573 0.632338 0
M  V30 9587 H 902.233 1.49942 1.16694 0
M  V30 9588 H 900.383 1.3484 3.64349 0
M  V30 9589 H 902.055 3.76686 2.6628 0
M  V30 9590 H 900.298 3.58191 2.44707 0
M  V30 9591 H 900.969 3.72392 4.07466 0
M  V30 9592 H 903.445 1.82656 3.73866 0
M  V30 9593 H 902.321 2.00257 5.11066 0
M  V30 9594 H 902.582 0.416957 4.40129 0
M  V30 9595 N 901.641 -1.19671 1.02551 0
M  V30 9596 C 902.551 -2.26441 0.613329 0
M  V30 9597 C 903.567 -1.70375 -0.353339 0
M  V30 9598 O 904.743 -2.0028 -0.212064 0
M  V30 9599 C 901.808 -3.46684 -0.0329028 0
M  V30 9600 C 900.869 -4.17945 0.980837 0
M  V30 9601 C 900.102 -5.32448 0.36535 0
M  V30 9602 O 900.325 -5.64291 -0.832596 0
M  V30 9603 O 899.259 -5.92012 1.08652 0
M  V30 9604 H 903.085 -2.63932 1.50246 0
M  V30 9605 H 900.67 -1.2646 0.795502 0
M  V30 9606 H 902.552 -4.1956 -0.393395 0
M  V30 9607 H 901.227 -3.1105 -0.896089 0
M  V30 9608 H 900.134 -3.47204 1.39286 0
M  V30 9609 H 901.467 -4.57542 1.81428 0
M  V30 9610 N 903.119 -0.802921 -1.35613 0
M  V30 9611 C 904.367 -0.380822 -1.9848 0
M  V30 9612 C 904.688 1.05464 -1.6402 0
M  V30 9613 O 903.958 1.72908 -0.920854 0
M  V30 9614 H 902.538 -0.137824 -0.734176 0
M  V30 9615 H 905.2 -1.02795 -1.65587 0
M  V30 9616 H 904.296 -0.483565 -3.08331 0
M  V30 9617 N 904.597 1.47463 -0.556102 0
M  V30 9618 C 905.822 2.07371 -0.0344729 0
M  V30 9619 C 906.247 1.40621 1.2493 0
M  V30 9620 O 905.605 0.48082 1.74808 0
M  V30 9621 C 905.653 3.60306 0.145563 0
M  V30 9622 O 904.757 3.94299 1.20839 0
M  V30 9623 H 904.098 0.662052 -0.0508274 0
M  V30 9624 H 906.628 1.89498 -0.771469 0
M  V30 9625 H 906.638 4.06408 0.360112 0
M  V30 9626 H 905.313 4.08288 -0.792089 0
M  V30 9627 H 903.89 3.59944 0.97442 0
M  V30 9628 N 906.075 0.2925 1.54862 0
M  V30 9629 C 907.323 -0.318633 1.99572 0
M  V30 9630 C 907.644 -1.55062 1.1824 0
M  V30 9631 O 906.914 -1.93943 0.276226 0
M  V30 9632 H 905.494 -0.120722 0.737181 0
M  V30 9633 H 908.156 0.401862 1.90712 0
M  V30 9634 H 907.252 -0.596542 3.06346 0
M  V30 9635 N 907.553 -1.57587 0.0200696 0
M  V30 9636 C 908.83 -1.82696 -0.698677 0
M  V30 9637 C 909.21 -0.902082 -1.90855 0
M  V30 9638 O 908.558 0.0444834 -2.28457 0
M  V30 9639 C 908.768 -3.31691 -1.08546 0
M  V30 9640 C 910.116 -3.97938 -1.4809 0
M  V30 9641 O 911.14 -3.36133 -1.17869 0
M  V30 9642 O 909.999 -5.06851 -2.04364 0
M  V30 9643 H 907.093 -0.752997 -0.341942 0
M  V30 9644 H 909.639 -1.69635 0.04706 0
M  V30 9645 H 908.411 -3.90659 -0.223956 0
M  V30 9646 H 908.034 -3.49825 -1.88965 0
M  V30 9647 N 909.032 0.252966 -1.55557 0
M  V30 9648 C 910.443 0.822503 -1.67606 0
M  V30 9649 C 910.794 1.86265 -0.616411 0
M  V30 9650 O 909.919 2.15082 0.238447 0
M  V30 9651 C 910.514 1.49866 -3.03852 0
M  V30 9652 C 909.073 2.01597 -3.17861 0
M  V30 9653 C 908.22 0.864943 -2.63465 0
M  V30 9654 H 911.171 0.0288958 -1.58674 0
M  V30 9655 H 911.192 2.36646 -2.97958 0
M  V30 9656 H 910.704 0.741378 -3.80953 0
M  V30 9657 H 908.805 2.80224 -2.45571 0
M  V30 9658 H 908.918 2.21752 -4.24692 0
M  V30 9659 H 907.282 1.2638 -2.21134 0
M  V30 9660 H 908.065 0.120847 -3.43087 0
M  V30 9661 N 910.51 1.48831 0.518367 0
M  V30 9662 C 911.42 1.6692 1.64848 0
M  V30 9663 C 912.436 0.551711 1.65022 0
M  V30 9664 O 913.612 0.824251 1.83761 0
M  V30 9665 C 910.677 1.71559 3.01278 0
M  V30 9666 C 909.738 2.9502 3.11868 0
M  V30 9667 C 908.971 2.99428 4.4179 0
M  V30 9668 O 909.194 2.11914 5.29574 0
M  V30 9669 O 908.128 3.91719 4.5699 0
M  V30 9670 H 911.954 2.62623 1.52521 0
M  V30 9671 H 909.539 1.32368 0.692749 0
M  V30 9672 H 911.421 1.77064 3.82396 0
M  V30 9673 H 910.096 0.790316 3.13904 0
M  V30 9674 H 909.003 2.95042 2.30003 0
M  V30 9675 H 910.336 3.8697 3.04163 0
M  V30 9676 N 911.988 -0.768124 1.37614 0
M  V30 9677 C 912.898 -1.91249 1.35871 0
M  V30 9678 C 913.914 -1.7208 0.257786 0
M  V30 9679 O 915.09 -1.95253 0.493782 0
M  V30 9680 C 912.155 -3.26423 1.16829 0
M  V30 9681 C 911.216 -3.5822 2.36594 0
M  V30 9682 C 910.449 -4.86945 2.1845 0
M  V30 9683 O 910.672 -5.58258 1.17064 0
M  V30 9684 O 909.606 -5.17888 3.06718 0
M  V30 9685 H 913.432 -1.95671 2.32264 0
M  V30 9686 H 911.017 -0.911382 1.18382 0
M  V30 9687 H 912.899 -4.07269 1.08212 0
M  V30 9688 H 911.574 -3.22845 0.235123 0
M  V30 9689 H 910.481 -2.77594 2.50783 0
M  V30 9690 H 911.814 -3.66545 3.2849 0
M  V30 9691 N 913.466 -1.22244 -0.994698 0
M  V30 9692 C 914.714 -1.04384 -1.73056 0
M  V30 9693 C 915.035 0.422204 -1.90374 0
M  V30 9694 O 914.305 1.30383 -1.46209 0
M  V30 9695 H 912.885 -0.383263 -0.641185 0
M  V30 9696 H 915.547 -1.53725 -1.1981 0
M  V30 9697 H 914.643 -1.52021 -2.72573 0
M  V30 9698 N 914.944 1.19125 -1.03184 0
M  V30 9699 C 915.891 2.2245 -0.6152 0
M  V30 9700 C 916.861 1.61869 0.372502 0
M  V30 9701 O 918.046 1.88901 0.268491 0
M  V30 9702 C 915.186 3.45091 0.0248027 0
M  V30 9703 C 914.299 4.20044 -1.0093 0
M  V30 9704 C 913.434 5.30119 -0.338744 0
M  V30 9705 C 912.473 5.96833 -1.35855 0
M  V30 9706 N 911.61 6.98464 -0.713594 0
M  V30 9707 H 916.45 2.57445 -1.50086 0
M  V30 9708 H 913.987 1.26485 -0.751005 0
M  V30 9709 H 915.945 4.15149 0.413131 0
M  V30 9710 H 914.575 3.10742 0.874028 0
M  V30 9711 H 913.627 3.48901 -1.51566 0
M  V30 9712 H 914.939 4.65796 -1.78425 0
M  V30 9713 H 914.093 6.0661 0.104269 0
M  V30 9714 H 912.832 4.85446 0.468382 0
M  V30 9715 H 911.837 5.1909 -1.81179 0
M  V30 9716 H 913.062 6.4359 -2.16722 0
M  V30 9717 H 911.008 6.55959 0.0733863 0
M  V30 9718 H 910.925 7.42422 -1.42638 0
M  V30 9719 H 912.193 7.78943 -0.294681 0
M  V30 9720 N 916.422 0.810101 1.35185 0
M  V30 9721 C 917.355 0.168416 2.27578 0
M  V30 9722 C 918.333 -0.667664 1.4826 0
M  V30 9723 O 919.517 -0.634184 1.77512 0
M  V30 9724 C 916.644 -0.765994 3.29925 0
M  V30 9725 C 915.69 -0.00908802 4.26499 0
M  V30 9726 S 916.523 1.32936 5.18737 0
M  V30 9727 C 917.679 0.399485 6.24624 0
M  V30 9728 H 917.912 0.951753 2.81654 0
M  V30 9729 H 915.445 0.60534 1.42039 0
M  V30 9730 H 917.403 -1.2996 3.89385 0
M  V30 9731 H 916.064 -1.52275 2.7472 0
M  V30 9732 H 915.257 -0.718919 4.98846 0
M  V30 9733 H 914.859 0.454663 3.71226 0
M  V30 9734 H 917.151 -0.413904 6.76234 0
M  V30 9735 H 918.094 1.09225 6.99625 0
M  V30 9736 H 918.502 -0.00638358 5.645 0
M  V30 9737 N 917.9 -1.47166 0.563914 0
M  V30 9738 C 919.177 -1.95586 -0.0236172 0
M  V30 9739 C 919.557 -1.50655 -1.47872 0
M  V30 9740 O 918.905 -0.748479 -2.15894 0
M  V30 9741 C 919.115 -3.48762 0.128841 0
M  V30 9742 C 920.463 -4.24598 -0.0130544 0
M  V30 9743 O 921.487 -3.56155 0.0567242 0
M  V30 9744 O 920.346 -5.46253 -0.164332 0
M  V30 9745 H 917.44 -0.824793 -0.0603789 0
M  V30 9746 H 919.986 -1.57536 0.63091 0
M  V30 9747 H 918.758 -3.74291 1.14113 0
M  V30 9748 H 918.381 -3.93594 -0.56299 0
M  V30 9749 N 919.378 -0.300708 -1.54705 0
M  V30 9750 C 920.655 0.361757 -1.92226 0
M  V30 9751 C 921.035 1.71714 -1.2279 0
M  V30 9752 O 920.383 2.2559 -0.363542 0
M  V30 9753 C 920.593 0.476699 -3.45729 0
M  V30 9754 C 921.941 0.7477 -4.17965 0
M  V30 9755 O 922.965 0.560521 -3.51762 0
M  V30 9756 O 921.824 1.10724 -5.35166 0
M  V30 9757 H 918.918 0.202213 -0.801897 0
M  V30 9758 H 921.464 -0.348746 -1.66078 0
M  V30 9759 H 920.236 -0.476132 -3.88392 0
M  V30 9760 H 919.859 1.23568 -3.77911 0
M  V30 9761 N 920.856 1.57574 -0.0284266 0
M  V30 9762 C 921.766 2.13637 0.96936 0
M  V30 9763 C 922.782 1.08845 1.35752 0
M  V30 9764 O 923.958 1.40899 1.43908 0
M  V30 9765 C 921.023 2.65179 2.2334 0
M  V30 9766 C 920.084 3.84683 1.90572 0
M  V30 9767 C 919.317 4.33758 3.1095 0
M  V30 9768 O 919.54 3.82009 4.23586 0
M  V30 9769 O 918.474 5.2561 2.93288 0
M  V30 9770 H 922.3 2.99169 0.52267 0
M  V30 9771 H 919.885 1.48159 0.192135 0
M  V30 9772 H 921.767 2.98402 2.97547 0
M  V30 9773 H 920.442 1.82731 2.67191 0
M  V30 9774 H 919.349 3.56386 1.13753 0
M  V30 9775 H 920.682 4.68292 1.51538 0
M  V30 9776 N 922.334 -0.244713 1.55689 0
M  V30 9777 C 923.611 -0.995407 1.68378 0
M  V30 9778 C 923.991 -2.03288 0.568949 0
M  V30 9779 O 923.339 -2.24469 -0.427299 0
M  V30 9780 C 923.549 -1.62678 3.08767 0
M  V30 9781 C 924.897 -2.1278 3.67437 0
M  V30 9782 O 925.921 -1.72614 3.11581 0
M  V30 9783 O 924.78 -2.86536 4.65359 0
M  V30 9784 H 921.874 -0.463476 0.684923 0
M  V30 9785 H 924.42 -0.238326 1.68018 0
M  V30 9786 H 923.192 -0.876469 3.81358 0
M  V30 9787 H 922.815 -2.45 3.13146 0
M  V30 9788 N 923.813 -1.49104 -0.510467 0
M  V30 9789 C 925.224 -1.51423 -1.09215 0
M  V30 9790 C 925.575 -0.295035 -1.93969 0
M  V30 9791 O 924.7 0.596064 -2.08029 0
M  V30 9792 C 925.295 -2.74387 -1.98739 0
M  V30 9793 C 923.854 -2.79515 -2.52088 0
M  V30 9794 C 923.001 -2.4521 -1.29488 0
M  V30 9795 H 925.952 -1.55938 -0.294807 0
M  V30 9796 H 925.973 -2.54012 -2.83298 0
M  V30 9797 H 925.485 -3.63105 -1.37026 0
M  V30 9798 H 923.586 -1.95054 -3.17466 0
M  V30 9799 H 923.699 -3.81447 -2.89887 0
M  V30 9800 H 922.063 -1.96785 -1.61703 0
M  V30 9801 H 922.846 -3.36192 -0.694978 0
M  V30 9802 N 925.291 0.760815 -1.38019 0
M  V30 9803 C 926.221 1.88811 -1.37377 0
M  V30 9804 C 927.202 1.68388 -0.240737 0
M  V30 9805 O 928.387 1.89086 -0.442739 0
M  V30 9806 C 925.517 3.26244 -1.1909 0
M  V30 9807 C 924.471 3.61254 -2.29521 0
M  V30 9808 C 923.797 4.97346 -1.96345 0
M  V30 9809 C 925.097 3.66874 -3.71753 0
M  V30 9810 H 926.791 1.89606 -2.31711 0
M  V30 9811 H 924.337 0.910818 -1.11535 0
M  V30 9812 H 926.29 4.04755 -1.17267 0
M  V30 9813 H 925.014 3.2591 -0.212152 0
M  V30 9814 H 923.673 2.85057 -2.30517 0
M  V30 9815 H 923.321 4.93564 -0.969728 0
M  V30 9816 H 923.021 5.21739 -2.703 0
M  V30 9817 H 924.545 5.78244 -1.96129 0
M  V30 9818 H 925.959 4.35514 -3.72828 0
M  V30 9819 H 924.356 4.02772 -4.44853 0
M  V30 9820 H 925.426 2.67273 -4.0459 0
M  V30 9821 N 926.769 1.22769 0.988202 0
M  V30 9822 C 928.015 1.05665 1.73097 0
M  V30 9823 C 928.348 -0.406615 1.89895 0
M  V30 9824 O 927.623 -1.30132 1.44554 0
M  V30 9825 C 927.906 1.77381 3.13382 0
M  V30 9826 C 927.759 3.31332 3.04203 0
M  V30 9827 C 929.078 1.52999 4.12649 0
M  V30 9828 H 926.197 0.385258 0.628288 0
M  V30 9829 H 928.839 1.51171 1.15097 0
M  V30 9830 H 926.989 1.38696 3.62899 0
M  V30 9831 H 928.661 3.79489 2.6227 0
M  V30 9832 H 926.904 3.60767 2.40894 0
M  V30 9833 H 927.575 3.76692 4.03493 0
M  V30 9834 H 930.051 1.86611 3.71908 0
M  V30 9835 H 928.927 2.05666 5.08913 0
M  V30 9836 H 929.188 0.463615 4.39662 0
M  V30 9837 N 928.247 -1.18576 1.03814 0
M  V30 9838 C 929.658 -1.70159 0.768299 0
M  V30 9839 C 930.009 -1.8286 -0.711106 0
M  V30 9840 O 929.134 -1.5063 -1.55369 0
M  V30 9841 C 929.729 -3.09062 1.38804 0
M  V30 9842 C 928.288 -3.57866 1.16656 0
M  V30 9843 C 927.435 -2.34484 1.48029 0
M  V30 9844 H 930.386 -1.03287 1.20488 0
M  V30 9845 H 930.407 -3.72211 0.7899 0
M  V30 9846 H 929.919 -2.99785 2.46476 0
M  V30 9847 H 928.02 -3.72442 0.108471 0
M  V30 9848 H 928.133 -4.41445 1.8618 0
M  V30 9849 H 926.497 -2.38273 0.899902 0
M  V30 9850 H 927.28 -2.27829 2.56805 0
M  V30 9851 N 929.725 -0.817259 -1.34754 0
M  V30 9852 C 930.973 -0.401852 -1.98065 0
M  V30 9853 C 931.294 1.03718 -1.65129 0
M  V30 9854 O 930.564 1.71921 -0.939141 0
M  V30 9855 H 929.144 -0.145603 -0.732672 0
M  V30 9856 H 931.806 -1.04545 -1.64488 0
M  V30 9857 H 930.902 -0.516241 -3.07801 0
M  V30 9858 N 931.203 1.46865 -0.571711 0
M  V30 9859 C 932.619 1.57897 -0.23255 0
M  V30 9860 C 932.819 1.56836 1.26509 0
M  V30 9861 O 931.875 1.47947 2.04617 0
M  V30 9862 C 933.188 2.87778 -0.872036 0
M  V30 9863 C 934.736 3.01389 -0.844605 0
M  V30 9864 C 935.211 4.33991 -1.46343 0
M  V30 9865 N 936.702 4.40662 -1.42727 0
M  V30 9866 C 937.437 5.41858 -1.87557 0
M  V30 9867 N 936.933 6.49787 -2.4031 0
M  V30 9868 N 938.726 5.32992 -1.7854 0
M  V30 9869 H 930.877 1.45798 -1.54457 0
M  V30 9870 H 933.14 0.694785 -0.644964 0
M  V30 9871 H 932.846 2.94332 -1.92513 0
M  V30 9872 H 932.72 3.75345 -0.373677 0
M  V30 9873 H 935.107 2.94423 0.19984 0
M  V30 9874 H 935.188 2.15327 -1.38087 0
M  V30 9875 H 934.832 4.41714 -2.50701 0
M  V30 9876 H 934.762 5.18809 -0.902479 0
M  V30 9877 H 937.253 3.63263 -1.04155 0
M  V30 9878 H 937.566 7.23199 -2.72403 0
M  V30 9879 H 935.911 6.50637 -2.44329 0
M  V30 9880 H 939.102 4.47575 -1.37093 0
M  V30 9881 H 939.275 6.11716 -2.13794 0
M  V30 9882 N 932.681 0.308908 1.54543 0
M  V30 9883 C 933.958 -0.351558 1.92415 0
M  V30 9884 C 934.338 -1.71061 1.23699 0
M  V30 9885 O 933.686 -2.25394 0.3755 0
M  V30 9886 C 933.896 -0.458357 3.45977 0
M  V30 9887 C 935.244 -0.725524 4.18355 0
M  V30 9888 O 936.268 -0.541859 3.52054 0
M  V30 9889 O 935.127 -1.07884 5.35745 0
M  V30 9890 H 932.221 -0.197957 0.802958 0
M  V30 9891 H 934.767 0.357548 1.65891 0
M  V30 9892 H 933.539 0.496723 3.88134 0
M  V30 9893 H 933.162 -1.21562 3.78561 0
M  V30 9894 N 934.159 -1.57557 0.0367827 0
M  V30 9895 C 935.575 -1.56366 -0.31967 0
M  V30 9896 C 935.775 -1.04313 -1.72398 0
M  V30 9897 O 934.831 -0.693278 -2.42796 0
M  V30 9898 C 936.144 -3.00267 -0.161274 0
M  V30 9899 C 937.692 -3.12128 -0.233464 0
M  V30 9900 C 938.167 -4.57882 -0.103767 0
M  V30 9901 N 939.658 -4.62922 -0.160506 0
M  V30 9902 C 940.393 -5.73338 -0.0840493 0
M  V30 9903 N 939.889 -6.92786 0.043933 0
M  V30 9904 N 941.682 -5.61929 -0.138592 0
M  V30 9905 H 933.833 -1.8972 0.954996 0
M  V30 9906 H 936.096 -0.87304 0.369467 0
M  V30 9907 H 935.802 -3.42331 0.80639 0
M  V30 9908 H 935.676 -3.65599 -0.928304 0
M  V30 9909 H 938.063 -2.69972 -1.19159 0
M  V30 9910 H 938.144 -2.49503 0.564075 0
M  V30 9911 H 937.788 -5.0072 0.850973 0
M  V30 9912 H 937.718 -5.18496 -0.920268 0
M  V30 9913 H 940.209 -3.7701 -0.259257 0
M  V30 9914 H 940.522 -7.72741 0.095372 0
M  V30 9915 H 938.867 -6.94955 0.0788211 0
M  V30 9916 H 942.058 -4.67499 -0.237031 0
M  V30 9917 H 942.231 -6.47956 -0.075546 0
M  V30 9918 N 935.637 0.236453 -1.55816 0
M  V30 9919 C 936.885 0.96111 -1.77784 0
M  V30 9920 C 937.206 1.85454 -0.602648 0
M  V30 9921 O 936.476 1.92157 0.381137 0
M  V30 9922 H 935.056 0.35787 -0.655697 0
M  V30 9923 H 937.718 0.251888 -1.93265 0
M  V30 9924 H 936.814 1.5767 -2.69345 0
M  V30 9925 N 937.115 1.49373 0.502552 0
M  V30 9926 C 938.047 1.62045 1.62093 0
M  V30 9927 C 939.06 0.503221 1.54827 0
M  V30 9928 O 940.249 0.775208 1.60788 0
M  V30 9929 C 937.349 1.55971 3.00876 0
M  V30 9930 C 936.522 2.832 3.33341 0
M  V30 9931 C 935.581 2.702 4.51529 0
M  V30 9932 O 934.607 3.44132 4.53389 0
M  V30 9933 N 935.809 1.81642 5.5135 0
M  V30 9934 H 938.574 2.58501 1.51649 0
M  V30 9935 H 936.135 1.46442 0.690396 0
M  V30 9936 H 938.127 1.4493 3.77859 0
M  V30 9937 H 936.697 0.673795 3.05252 0
M  V30 9938 H 935.917 3.08604 2.4527 0
M  V30 9939 H 937.205 3.67551 3.51829 0
M  V30 9940 H 936.603 1.20829 5.52645 0
M  V30 9941 H 935.16 1.76524 6.27441 0
M  V30 9942 N 938.594 -0.753485 1.38421 0
M  V30 9943 C 939.504 -1.89797 1.37892 0
M  V30 9944 C 940.52 -1.71797 0.276023 0
M  V30 9945 O 941.696 -1.94718 0.514464 0
M  V30 9946 C 938.761 -3.25166 1.20284 0
M  V30 9947 C 937.822 -3.55691 2.4038 0
M  V30 9948 C 937.055 -4.84601 2.23602 0
M  V30 9949 O 937.278 -5.56985 1.22979 0
M  V30 9950 O 936.212 -5.14605 3.12194 0
M  V30 9951 H 940.038 -1.93197 2.34326 0
M  V30 9952 H 937.623 -0.898775 1.19342 0
M  V30 9953 H 939.505 -4.06099 1.12525 0
M  V30 9954 H 938.18 -3.22577 0.269352 0
M  V30 9955 H 937.087 -2.74919 2.53714 0
M  V30 9956 H 938.42 -3.6304 3.32359 0
M  V30 9957 N 940.072 -1.23292 -0.981677 0
M  V30 9958 C 941.002 -1.03738 -2.09191 0
M  V30 9959 C 941.983 0.0453041 -1.7004 0
M  V30 9960 O 943.168 -0.119092 -1.93834 0
M  V30 9961 C 940.298 -0.626426 -3.41604 0
M  V30 9962 C 939.252 -1.65631 -3.94652 0
M  V30 9963 C 938.578 -1.10084 -5.23245 0
M  V30 9964 C 939.878 -3.04903 -4.24066 0
M  V30 9965 H 941.572 -1.966 -2.25807 0
M  V30 9966 H 939.118 -0.946656 -1.0851 0
M  V30 9967 H 941.071 -0.476689 -4.18695 0
M  V30 9968 H 939.795 0.337873 -3.24848 0
M  V30 9969 H 938.454 -1.79402 -3.19704 0
M  V30 9970 H 938.102 -0.127562 -5.02838 0
M  V30 9971 H 937.802 -1.78896 -5.59705 0
M  V30 9972 H 939.326 -0.962928 -6.02959 0
M  V30 9973 H 940.74 -2.94441 -4.91912 0
M  V30 9974 H 939.137 -3.70941 -4.71724 0
M  V30 9975 H 940.207 -3.53991 -3.31389 0
M  V30 9976 N 941.55 1.18024 -1.04442 0
M  V30 9977 C 942.966 1.40107 -0.76435 0
M  V30 9978 C 943.166 1.90914 0.644516 0
M  V30 9979 O 942.222 2.0959 1.40813 0
M  V30 9980 C 943.535 2.39851 -1.81361 0
M  V30 9981 C 945.083 2.53571 -1.83496 0
M  V30 9982 C 945.558 3.56583 -2.87424 0
M  V30 9983 N 947.049 3.64094 -2.86339 0
M  V30 9984 C 947.784 4.43537 -3.63405 0
M  V30 9985 N 947.28 5.26557 -4.50233 0
M  V30 9986 N 949.073 4.38336 -3.51877 0
M  V30 9987 H 941.224 0.833726 -1.95353 0
M  V30 9988 H 943.487 0.42881 -0.845474 0
M  V30 9989 H 943.193 2.09576 -2.82438 0
M  V30 9990 H 943.067 3.39251 -1.6489 0
M  V30 9991 H 945.454 2.83161 -0.830883 0
M  V30 9992 H 945.535 1.54272 -2.04044 0
M  V30 9993 H 945.179 3.27733 -3.88012 0
M  V30 9994 H 945.109 4.55569 -2.6413 0
M  V30 9995 H 947.6 3.04814 -2.23376 0
M  V30 9996 H 947.913 5.84336 -5.05738 0
M  V30 9997 H 946.258 5.25964 -4.54298 0
M  V30 9998 H 949.449 3.72528 -2.83444 0
M  V30 9999 H 949.622 5.00007 -4.12186 0
M  V30 10000 N 943.028 0.824394 1.34319 0
M  V30 10001 C 944.274 0.413779 1.98534 0
M  V30 10002 C 944.607 -1.02089 1.65201 0
M  V30 10003 O 943.882 -1.71129 0.924402 0
M  V30 10004 C 944.165 0.61801 3.54757 0
M  V30 10005 C 944.018 2.0989 3.97827 0
M  V30 10006 C 945.337 0.0549041 4.40066 0
M  V30 10007 H 942.456 0.151815 0.721194 0
M  V30 10008 H 945.098 1.03723 1.5919 0
M  V30 10009 H 943.248 0.0873107 3.88402 0
M  V30 10010 H 944.92 2.69335 3.74508 0
M  V30 10011 H 943.163 2.58881 3.48085 0
M  V30 10012 H 943.834 2.1926 5.06586 0
M  V30 10013 H 946.31 0.508348 4.12983 0
M  V30 10014 H 945.186 0.227595 5.48428 0
M  V30 10015 H 945.447 -1.04025 4.29687 0
M  V30 10016 N 944.506 -1.46559 0.579492 0
M  V30 10017 C 945.752 -2.02699 0.0639363 0
M  V30 10018 C 946.085 -1.4504 -1.29139 0
M  V30 10019 O 945.36 -0.614284 -1.84545 0
M  V30 10020 C 945.643 -3.601 -0.00528618 0
M  V30 10021 C 945.496 -4.28149 1.37871 0
M  V30 10022 C 946.815 -4.34375 -0.707537 0
M  V30 10023 H 943.934 -0.736586 0.0247085 0
M  V30 10024 H 946.576 -1.74739 0.746071 0
M  V30 10025 H 944.726 -3.84052 -0.586206 0
M  V30 10026 H 946.398 -4.1547 2.00455 0
M  V30 10027 H 944.641 -3.87636 1.94732 0
M  V30 10028 H 945.312 -5.36888 1.28278 0
M  V30 10029 H 947.788 -4.15549 -0.214064 0
M  V30 10030 H 946.664 -5.44091 -0.724992 0
M  V30 10031 H 946.925 -4.052 -1.7682 0
M  V30 10032 N 945.984 -0.3171 -1.54377 0
M  V30 10033 C 946.914 0.544623 -2.2706 0
M  V30 10034 C 947.895 1.12469 -1.27611 0
M  V30 10035 O 949.08 1.15103 -1.56413 0
M  V30 10036 C 946.21 1.70879 -3.02353 0
M  V30 10037 C 945.164 1.25833 -4.09084 0
M  V30 10038 C 944.49 2.50894 -4.72182 0
M  V30 10039 C 945.79 0.377876 -5.20931 0
M  V30 10040 H 947.484 -0.0616372 -2.99337 0
M  V30 10041 H 945.03 -0.0310848 -1.43966 0
M  V30 10042 H 946.983 2.31787 -3.51927 0
M  V30 10043 H 945.707 2.34155 -2.27682 0
M  V30 10044 H 944.366 0.672228 -3.60384 0
M  V30 10045 H 944.014 3.12518 -3.94134 0
M  V30 10046 H 943.714 2.21447 -5.44275 0
M  V30 10047 H 945.238 3.12575 -5.24528 0
M  V30 10048 H 946.652 0.893056 -5.66302 0
M  V30 10049 H 945.049 0.176474 -5.9984 0
M  V30 10050 H 946.119 -0.592943 -4.81261 0
M  V30 10051 N 947.462 1.57535 -0.0451378 0
M  V30 10052 C 948.409 2.11176 0.931313 0
M  V30 10053 C 949.379 1.01765 1.31275 0
M  V30 10054 O 950.564 1.29279 1.40327 0
M  V30 10055 C 947.704 2.65639 2.20295 0
M  V30 10056 C 946.817 3.89114 1.87654 0
M  V30 10057 C 945.952 4.31914 3.09232 0
M  V30 10058 C 944.991 5.48105 2.72484 0
M  V30 10059 N 944.128 5.85986 3.86736 0
M  V30 10060 H 948.968 2.94318 0.466986 0
M  V30 10061 H 946.505 1.45462 0.218886 0
M  V30 10062 H 948.463 2.95312 2.94697 0
M  V30 10063 H 947.093 1.85303 2.64316 0
M  V30 10064 H 946.145 3.6607 1.03427 0
M  V30 10065 H 947.457 4.7358 1.56601 0
M  V30 10066 H 946.611 4.63108 3.91939 0
M  V30 10067 H 945.35 3.46247 3.43459 0
M  V30 10068 H 944.355 5.16589 1.88192 0
M  V30 10069 H 945.58 6.35482 2.39455 0
M  V30 10070 H 943.526 5.03273 4.20775 0
M  V30 10071 H 943.443 6.65129 3.5936 0
M  V30 10072 H 944.711 6.21793 4.701 0
M  V30 10073 N 948.94 -0.228186 1.55939 0
M  V30 10074 C 950.186 -0.954964 1.78909 0
M  V30 10075 C 950.519 -1.8425 0.613648 0
M  V30 10076 O 949.794 -1.90604 -0.38737 0
M  V30 10077 C 950.077 -1.79957 3.1191 0
M  V30 10078 C 949.93 -0.938968 4.3989 0
M  V30 10079 C 951.249 -2.77859 3.41295 0
M  V30 10080 H 948.368 -0.345745 0.650868 0
M  V30 10081 H 951.01 -0.224244 1.88672 0
M  V30 10082 H 949.16 -2.42256 3.03717 0
M  V30 10083 H 950.832 -0.333225 4.60095 0
M  V30 10084 H 949.075 -0.244096 4.33113 0
M  V30 10085 H 949.746 -1.56416 5.29375 0
M  V30 10086 H 952.222 -2.25695 3.49572 0
M  V30 10087 H 951.098 -3.34062 4.35538 0
M  V30 10088 H 951.359 -3.55266 2.63132 0
M  V30 10089 N 950.418 -1.49637 -0.494624 0
M  V30 10090 C 951.348 -1.69692 -1.60396 0
M  V30 10091 C 952.329 -0.545648 -1.61111 0
M  V30 10092 O 953.514 -0.782202 -1.77751 0
M  V30 10093 C 950.644 -1.76934 -2.9885 0
M  V30 10094 C 949.598 -2.91915 -3.13001 0
M  V30 10095 C 948.924 -2.84276 -4.5287 0
M  V30 10096 C 950.224 -4.32764 -2.92426 0
M  V30 10097 H 951.918 -2.6257 -1.43866 0
M  V30 10098 H 949.464 -1.26355 -0.690679 0
M  V30 10099 H 951.417 -1.8955 -3.76362 0
M  V30 10100 H 950.141 -0.806609 -3.16483 0
M  V30 10101 H 948.8 -2.78911 -2.37916 0
M  V30 10102 H 948.448 -1.85897 -4.67388 0
M  V30 10103 H 948.148 -3.61452 -4.63278 0
M  V30 10104 H 949.672 -2.98909 -5.32434 0
M  V30 10105 H 951.086 -4.46415 -3.59703 0
M  V30 10106 H 949.483 -5.1121 -3.143 0
M  V30 10107 H 950.553 -4.46765 -1.88491 0
M  V30 10108 N 951.896 0.746133 -1.38819 0
M  V30 10109 C 953.173 1.49652 -1.25951 0
M  V30 10110 C 953.553 2.10663 0.135833 0
M  V30 10111 O 952.901 1.97682 1.14604 0
M  V30 10112 C 953.111 2.5569 -2.37537 0
M  V30 10113 C 954.459 3.22385 -2.76321 0
M  V30 10114 O 955.483 2.65998 -2.36904 0
M  V30 10115 O 954.342 4.2439 -3.44319 0
M  V30 10116 H 951.436 0.664019 -0.492958 0
M  V30 10117 H 953.982 0.780908 -1.50665 0
M  V30 10118 H 952.754 2.08908 -3.30867 0
M  V30 10119 H 952.377 3.34823 -2.14427 0
M  V30 10120 N 953.375 1.23811 0.975125 0
M  V30 10121 C 954.786 1.0675 1.53171 0
M  V30 10122 C 955.137 -0.363475 1.92804 0
M  V30 10123 O 954.262 -1.25089 1.76583 0
M  V30 10124 C 954.857 1.93161 2.78342 0
M  V30 10125 C 953.416 1.80346 3.30382 0
M  V30 10126 C 952.563 1.88544 2.03338 0
M  V30 10127 H 955.514 1.37396 0.79423 0
M  V30 10128 H 955.535 1.45951 3.51395 0
M  V30 10129 H 955.047 2.97302 2.49465 0
M  V30 10130 H 953.148 0.790077 3.64127 0
M  V30 10131 H 953.261 2.64026 3.99784 0
M  V30 10132 H 951.625 1.32186 2.17713 0
M  V30 10133 H 952.408 2.94252 1.76836 0
M  V30 10134 N 954.853 -1.17469 1.05066 0
M  V30 10135 C 956.078 -1.92162 0.780298 0
M  V30 10136 C 956.503 -1.76222 -0.657832 0
M  V30 10137 O 955.861 -1.0791 -1.45688 0
M  V30 10138 C 955.909 -3.41292 1.16414 0
M  V30 10139 O 955.013 -4.1134 0.295531 0
M  V30 10140 H 954.354 -0.599127 0.286257 0
M  V30 10141 H 956.884 -1.48903 1.40318 0
M  V30 10142 H 956.894 -3.92029 1.13036 0
M  V30 10143 H 955.569 -3.52214 2.21175 0
M  V30 10144 H 954.146 -3.70857 0.389797 0
M  V30 10145 N 956.331 -0.831506 -1.3388 0
M  V30 10146 C 957.281 -0.231656 -2.2682 0
M  V30 10147 C 958.265 0.609075 -1.48926 0
M  V30 10148 O 959.457 0.462249 -1.70857 0
M  V30 10149 C 956.586 0.59846 -3.38043 0
M  V30 10150 C 955.672 -0.253372 -4.23342 0
M  V30 10151 N 956.063 -1.32854 -4.8804 0
M  V30 10152 C 954.361 -0.0391537 -4.45983 0
M  V30 10153 C 955.062 -1.85069 -5.51475 0
M  V30 10154 N 954.038 -1.15327 -5.31226 0
M  V30 10155 H 957.84 -1.05396 -2.74352 0
M  V30 10156 H 955.354 -0.675195 -1.47699 0
M  V30 10157 H 957.351 1.04443 -4.03605 0
M  V30 10158 H 956.011 1.41882 -2.92061 0
M  V30 10159 H 957.022 -1.71139 -4.88806 0
M  V30 10160 H 953.699 0.748356 -4.10738 0
M  V30 10161 H 955.089 -2.75065 -6.13016 0
M  V30 10162 N 957.809 1.4625 -0.587256 0
M  V30 10163 C 958.759 2.27407 0.164393 0
M  V30 10164 C 959.743 1.36138 0.857628 0
M  V30 10165 O 960.935 1.60279 0.750973 0
M  V30 10166 C 958.064 3.22585 1.17447 0
M  V30 10167 C 957.15 4.21339 0.483121 0
M  V30 10168 N 957.541 5.03669 -0.46385 0
M  V30 10169 C 955.839 4.39931 0.73329 0
M  V30 10170 C 956.54 5.75182 -0.868334 0
M  V30 10171 N 955.516 5.43169 -0.216487 0
M  V30 10172 H 959.318 2.88453 -0.563237 0
M  V30 10173 H 956.832 1.57155 -0.409388 0
M  V30 10174 H 958.829 3.79439 1.72718 0
M  V30 10175 H 957.489 2.63098 1.90288 0
M  V30 10176 H 958.5 5.11049 -0.839602 0
M  V30 10177 H 955.177 3.91588 1.44792 0
M  V30 10178 H 956.567 6.51371 -1.64821 0
M  V30 10179 N 959.287 0.325282 1.54207 0
M  V30 10180 C 960.564 -0.33113 1.92777 0
M  V30 10181 C 960.944 -1.69739 1.25506 0
M  V30 10182 O 960.292 -2.24983 0.399385 0
M  V30 10183 C 960.502 -0.421636 3.46444 0
M  V30 10184 C 961.85 -0.681111 4.19101 0
M  V30 10185 O 962.874 -0.504488 3.52609 0
M  V30 10186 O 961.733 -1.02196 5.3686 0
M  V30 10187 H 958.827 -0.18943 0.805013 0
M  V30 10188 H 961.373 0.375123 1.65502 0
M  V30 10189 H 960.145 0.537862 3.87586 0
M  V30 10190 H 959.768 -1.1754 3.79829 0
M  V30 10191 N 960.765 -1.57509 0.0534917 0
M  V30 10192 C 962.014 -1.91959 -0.619244 0
M  V30 10193 C 962.327 -0.933882 -1.71866 0
M  V30 10194 O 963.533 -1.17052 -2.44972 0
M  V30 10195 C 961.989 -3.40938 -1.15278 0
M  V30 10196 C 961.597 -4.47919 -0.085348 0
M  V30 10197 C 963.341 -3.84419 -1.80063 0
M  V30 10198 C 961.248 -5.88014 -0.631897 0
M  V30 10199 H 960.178 -0.71642 -0.235072 0
M  V30 10200 H 962.829 -1.83089 0.122758 0
M  V30 10201 H 961.211 -3.44821 -1.94717 0
M  V30 10202 H 962.385 -4.55629 0.688374 0
M  V30 10203 H 960.7 -4.13793 0.465178 0
M  V30 10204 H 963.297 -4.86457 -2.21954 0
M  V30 10205 H 963.64 -3.20791 -2.65328 0
M  V30 10206 H 964.173 -3.83062 -1.07275 0
M  V30 10207 H 960.912 -6.55244 0.183175 0
M  V30 10208 H 960.432 -5.83861 -1.37355 0
M  V30 10209 H 962.111 -6.37336 -1.11407 0
M  V30 10210 N 962.243 0.219913 -1.56058 0
M  V30 10211 C 963.206 1.25606 -1.91718 0
M  V30 10212 C 964.206 1.39721 -0.795912 0
M  V30 10213 O 965.396 1.37958 -1.06364 0
M  V30 10214 C 962.528 2.62961 -2.16943 0
M  V30 10215 H 963.721 0.951909 -2.84392 0
M  V30 10216 H 961.274 0.460398 -1.49365 0
M  V30 10217 H 962.009 2.98472 -1.26826 0
M  V30 10218 H 961.794 2.54093 -2.98629 0
M  V30 10219 H 963.284 3.37727 -2.45622 0
M  V30 10220 N 963.721 1.49897 0.486681 0
M  V30 10221 C 964.651 1.7054 1.59494 0
M  V30 10222 C 965.632 0.554184 1.60819 0
M  V30 10223 O 966.817 0.791617 1.77333 0
M  V30 10224 C 963.947 1.78517 2.97908 0
M  V30 10225 C 962.901 2.93571 3.11449 0
M  V30 10226 C 962.227 2.86674 4.51356 0
M  V30 10227 C 963.527 4.34308 2.90127 0
M  V30 10228 H 965.221 2.63329 1.42472 0
M  V30 10229 H 962.767 1.2672 0.683969 0
M  V30 10230 H 964.72 1.91544 3.75352 0
M  V30 10231 H 963.444 0.823381 3.16051 0
M  V30 10232 H 962.103 2.80169 2.36433 0
M  V30 10233 H 961.751 1.88373 4.66395 0
M  V30 10234 H 961.451 3.63903 4.61355 0
M  V30 10235 H 962.975 3.01728 5.30841 0
M  V30 10236 H 964.389 4.48317 3.57331 0
M  V30 10237 H 962.786 5.12869 3.11585 0
M  V30 10238 H 963.856 4.47759 1.86119 0
M  V30 10239 N 965.199 -0.738761 1.39212 0
M  V30 10240 C 966.162 -1.83441 1.37412 0
M  V30 10241 C 967.162 -1.58484 0.271908 0
M  V30 10242 O 968.352 -1.65954 0.529609 0
M  V30 10243 C 965.484 -3.21167 1.143 0
M  V30 10244 H 966.677 -1.86441 2.34904 0
M  V30 10245 H 964.23 -0.942023 1.24722 0
M  V30 10246 H 964.965 -3.23829 0.174756 0
M  V30 10247 H 964.75 -3.40678 1.94116 0
M  V30 10248 H 966.24 -4.01231 1.15773 0
M  V30 10249 N 966.677 -1.24326 -0.968545 0
M  V30 10250 C 967.924 -1.08245 -1.71141 0
M  V30 10251 C 968.252 0.378842 -1.90775 0
M  V30 10252 O 967.507 1.29634 -1.46607 0
M  V30 10253 C 967.806 -1.76644 -3.10695 0
M  V30 10254 C 967.472 -3.26572 -3.10905 0
M  V30 10255 C 966.134 -3.67475 -3.10669 0
M  V30 10256 C 968.486 -4.22422 -3.05302 0
M  V30 10257 C 965.814 -5.02666 -3.02562 0
M  V30 10258 C 968.166 -5.57619 -2.98737 0
M  V30 10259 C 966.83 -5.9787 -2.9683 0
M  V30 10260 H 966.1 -0.396098 -0.626249 0
M  V30 10261 H 968.747 -1.54418 -1.13258 0
M  V30 10262 H 967.052 -1.22864 -3.72037 0
M  V30 10263 H 968.749 -1.61668 -3.66967 0
M  V30 10264 H 965.339 -2.94017 -3.11852 0
M  V30 10265 H 969.523 -3.91821 -3.04614 0
M  V30 10266 H 964.779 -5.3305 -2.99446 0
M  V30 10267 H 968.953 -6.31595 -2.93361 0
M  V30 10268 H 966.58 -7.02587 -2.90303 0
M  V30 10269 N 968.156 1.1691 -1.05688 0
M  V30 10270 C 969.386 1.90927 -0.789339 0
M  V30 10271 C 969.794 1.77339 0.659369 0
M  V30 10272 O 969.137 1.11147 1.4626 0
M  V30 10273 C 969.199 3.42361 -1.09677 0
M  V30 10274 C 968.863 3.79733 -2.54267 0
M  V30 10275 C 969.86 3.82163 -3.52487 0
M  V30 10276 C 967.545 4.10547 -2.89406 0
M  V30 10277 C 969.539 4.14884 -4.8389 0
M  V30 10278 C 967.226 4.42936 -4.21011 0
M  V30 10279 C 968.224 4.45084 -5.18063 0
M  V30 10280 O 967.912 4.76707 -6.47307 0
M  V30 10281 H 967.644 0.612466 -0.286115 0
M  V30 10282 H 970.198 1.4916 -1.4121 0
M  V30 10283 H 968.428 3.84446 -0.416924 0
M  V30 10284 H 970.117 3.97645 -0.814456 0
M  V30 10285 H 970.883 3.58476 -3.26681 0
M  V30 10286 H 966.762 4.08044 -2.14525 0
M  V30 10287 H 970.306 4.16475 -5.59638 0
M  V30 10288 H 966.203 4.66088 -4.46579 0
M  V30 10289 H 966.971 4.94544 -6.52203 0
M  V30 10290 N 969.634 0.838594 1.33437 0
M  V30 10291 C 970.544 0.274048 2.32994 0
M  V30 10292 C 971.56 -0.599776 1.63336 0
M  V30 10293 O 972.736 -0.503963 1.94993 0
M  V30 10294 C 969.801 -0.541804 3.4244 0
M  V30 10295 C 968.862 0.356262 4.27819 0
M  V30 10296 C 968.095 -0.420747 5.32039 0
M  V30 10297 O 968.318 -1.65247 5.45939 0
M  V30 10298 O 967.252 0.205101 6.0155 0
M  V30 10299 H 971.078 1.09846 2.83139 0
M  V30 10300 H 968.663 0.601111 1.36774 0
M  V30 10301 H 970.545 -1.00544 4.0923 0
M  V30 10302 H 969.22 -1.34328 2.94513 0
M  V30 10303 H 968.127 0.867726 3.63897 0
M  V30 10304 H 969.46 1.1225 4.79229 0
M  V30 10305 N 971.112 -1.45937 0.595003 0
M  V30 10306 C 972.34 -2.06698 0.091293 0
M  V30 10307 C 972.755 -1.44176 -1.21897 0
M  V30 10308 O 972.112 -0.551402 -1.73971 0
M  V30 10309 C 972.163 -3.61436 -0.0681801 0
M  V30 10310 O 971.884 -4.21622 1.19023 0
M  V30 10311 C 973.385 -4.39155 -0.604814 0
M  V30 10312 H 970.605 -0.668029 0.0630737 0
M  V30 10313 H 973.149 -1.87376 0.819165 0
M  V30 10314 H 971.304 -3.80143 -0.746324 0
M  V30 10315 H 971.718 -5.14647 1.01187 0
M  V30 10316 H 973.192 -5.47973 -0.665532 0
M  V30 10317 H 973.669 -4.08055 -1.62444 0
M  V30 10318 H 974.275 -4.25282 0.0388658 0
M  V30 10319 N 972.59 -0.333456 -1.54032 0
M  V30 10320 C 973.553 0.515392 -2.2333 0
M  V30 10321 C 974.553 1.03566 -1.23007 0
M  V30 10322 O 975.743 0.926514 -1.47517 0
M  V30 10323 C 972.875 1.7169 -2.94508 0
M  V30 10324 H 974.068 -0.0905407 -2.99763 0
M  V30 10325 H 971.621 -0.0846651 -1.56071 0
M  V30 10326 H 972.356 2.3618 -2.22237 0
M  V30 10327 H 972.141 1.35115 -3.68085 0
M  V30 10328 H 973.631 2.31922 -3.47278 0
M  V30 10329 N 974.068 1.57479 -0.061844 0
M  V30 10330 C 975.293 1.97843 0.622311 0
M  V30 10331 C 975.718 0.939602 1.62951 0
M  V30 10332 O 975.076 -0.095958 1.81046 0
M  V30 10333 C 975.124 3.37262 1.2762 0
M  V30 10334 O 974.228 3.35943 2.39199 0
M  V30 10335 H 973.569 0.644212 0.160896 0
M  V30 10336 H 976.099 2.04165 -0.133409 0
M  V30 10337 H 976.109 3.74226 1.62539 0
M  V30 10338 H 974.784 4.12404 0.538112 0
M  V30 10339 H 973.361 3.10737 2.06148 0
M  V30 10340 N 975.546 -0.211634 1.56173 0
M  V30 10341 C 976.476 -1.26533 1.96244 0
M  V30 10342 C 977.457 -1.48362 0.832028 0
M  V30 10343 O 978.642 -1.60378 1.0951 0
M  V30 10344 C 975.772 -2.61307 2.2877 0
M  V30 10345 C 974.726 -2.54119 3.44395 0
M  V30 10346 C 974.052 -3.93014 3.62552 0
M  V30 10347 C 975.352 -2.08046 4.79076 0
M  V30 10348 H 977.046 -0.932407 2.84511 0
M  V30 10349 H 974.592 -0.447084 1.36884 0
M  V30 10350 H 976.545 -3.35188 2.55396 0
M  V30 10351 H 975.269 -2.96307 1.37367 0
M  V30 10352 H 973.928 -1.82694 3.17834 0
M  V30 10353 H 973.576 -4.25338 2.68508 0
M  V30 10354 H 973.276 -3.89083 4.40327 0
M  V30 10355 H 974.8 -4.68542 3.91537 0
M  V30 10356 H 976.214 -2.71676 5.04842 0
M  V30 10357 H 974.611 -2.15154 5.60204 0
M  V30 10358 H 975.681 -1.03306 4.73768 0
M  V30 10359 N 977.024 -1.50153 -0.478725 0
M  V30 10360 C 977.957 -1.63089 -1.59616 0
M  V30 10361 C 978.935 -0.479211 -1.55378 0
M  V30 10362 O 980.119 -0.697715 -1.75112 0
M  V30 10363 C 977.246 -1.60643 -2.9818 0
M  V30 10364 C 976.292 -2.81279 -3.206 0
M  V30 10365 S 977.125 -4.42681 -3.0132 0
M  V30 10366 C 978.281 -4.42915 -4.42241 0
M  V30 10367 H 978.514 -2.57612 -1.48402 0
M  V30 10368 H 976.047 -1.39321 -0.665513 0
M  V30 10369 H 978.005 -1.59917 -3.7807 0
M  V30 10370 H 976.666 -0.673684 -3.0679 0
M  V30 10371 H 975.859 -2.7585 -4.21809 0
M  V30 10372 H 975.461 -2.79533 -2.4847 0
M  V30 10373 H 977.753 -4.16007 -5.34737 0
M  V30 10374 H 978.696 -5.44477 -4.52715 0
M  V30 10375 H 979.104 -3.72715 -4.23962 0
M  V30 10376 N 978.502 0.731368 -1.39602 0
M  V30 10377 C 979.727 1.52567 -1.40492 0
M  V30 10378 C 980.152 1.881 -0.00228828 0
M  V30 10379 O 979.51 1.52167 0.985643 0
M  V30 10380 C 979.558 2.78749 -2.2876 0
M  V30 10381 O 978.662 3.7482 -1.71999 0
M  V30 10382 H 978.003 0.460601 -0.478271 0
M  V30 10383 H 980.533 0.902042 -1.83642 0
M  V30 10384 H 980.543 3.27446 -2.43399 0
M  V30 10385 H 979.218 2.5222 -3.30693 0
M  V30 10386 H 977.795 3.33604 -1.66622 0
M  V30 10387 N 979.98 1.24838 0.961938 0
M  V30 10388 C 980.912 1.00369 2.06055 0
M  V30 10389 C 981.925 -0.0288583 1.62774 0
M  V30 10390 O 983.114 0.208853 1.77274 0
M  V30 10391 C 980.214 0.493953 3.35281 0
M  V30 10392 C 979.387 1.59097 4.07439 0
M  V30 10393 C 978.446 1.08288 5.14937 0
M  V30 10394 O 977.472 1.77577 5.40791 0
M  V30 10395 N 978.674 -0.0796836 5.80445 0
M  V30 10396 H 981.439 1.94962 2.27618 0
M  V30 10397 H 979 1.15945 1.12997 0
M  V30 10398 H 980.992 0.138675 4.04462 0
M  V30 10399 H 979.562 -0.357851 3.10545 0
M  V30 10400 H 978.782 2.11817 3.32456 0
M  V30 10401 H 980.07 2.32817 4.52409 0
M  V30 10402 H 979.468 -0.658827 5.6185 0
M  V30 10403 H 978.025 -0.376057 6.50714 0
M  V30 10404 N 981.458 -1.16348 1.06306 0
M  V30 10405 C 982.704 -1.87158 0.781007 0
M  V30 10406 C 983.037 -1.81499 -0.690784 0
M  V30 10407 O 982.312 -1.23074 -1.50609 0
M  V30 10408 C 982.595 -3.3672 1.27639 0
M  V30 10409 C 982.448 -3.51069 2.81194 0
M  V30 10410 C 983.767 -4.31122 0.884388 0
M  V30 10411 H 980.886 -0.679586 0.285187 0
M  V30 10412 H 983.528 -1.36756 1.31901 0
M  V30 10413 H 981.678 -3.79775 0.818715 0
M  V30 10414 H 983.35 -3.16952 3.35171 0
M  V30 10415 H 981.593 -2.92976 3.19918 0
M  V30 10416 H 982.264 -4.56105 3.10921 0
M  V30 10417 H 984.74 -3.95969 1.27858 0
M  V30 10418 H 983.616 -5.34279 1.25847 0
M  V30 10419 H 983.877 -4.41598 -0.210673 0
M  V30 10420 N 982.937 -0.845659 -1.3299 0
M  V30 10421 C 984.162 -0.457435 -2.02293 0
M  V30 10422 C 984.587 0.935634 -1.63179 0
M  V30 10423 O 983.945 1.61297 -0.827835 0
M  V30 10424 C 983.993 -0.593665 -3.5568 0
M  V30 10425 O 983.097 0.37729 -4.10671 0
M  V30 10426 H 982.438 -0.185022 -0.637701 0
M  V30 10427 H 984.968 -1.14237 -1.69738 0
M  V30 10428 H 984.978 -0.477834 -4.05192 0
M  V30 10429 H 983.653 -1.60957 -3.83491 0
M  V30 10430 H 982.23 0.218448 -3.7226 0
M  V30 10431 N 984.415 1.45619 -0.602734 0
M  V30 10432 C 985.365 2.27568 0.140264 0
M  V30 10433 C 986.349 1.3704 0.84314 0
M  V30 10434 O 987.541 1.61067 0.733931 0
M  V30 10435 C 984.67 3.23812 1.14019 0
M  V30 10436 C 983.756 4.21828 0.438406 0
M  V30 10437 N 984.147 5.03148 -0.517245 0
M  V30 10438 C 982.445 4.40684 0.686588 0
M  V30 10439 C 983.146 5.74229 -0.929291 0
M  V30 10440 N 982.122 5.42909 -0.274086 0
M  V30 10441 H 985.924 2.87839 -0.5938 0
M  V30 10442 H 983.438 1.56712 -0.426033 0
M  V30 10443 H 985.435 3.8125 1.68684 0
M  V30 10444 H 984.095 2.65102 1.87486 0
M  V30 10445 H 985.106 5.1013 -0.893758 0
M  V30 10446 H 981.783 3.93102 1.4063 0
M  V30 10447 H 983.173 6.49586 -1.7172 0
M  V30 10448 N 985.893 0.34162 1.53853 0
M  V30 10449 C 987.121 -0.256929 2.05299 0
M  V30 10450 C 987.536 -1.44366 1.21671 0
M  V30 10451 O 986.893 -1.80758 0.251584 0
M  V30 10452 C 986.944 -0.673854 3.55164 0
M  V30 10453 O 986.665 0.465687 4.35618 0
M  V30 10454 C 988.166 -1.33332 4.22773 0
M  V30 10455 H 985.386 -0.0499445 0.669139 0
M  V30 10456 H 987.93 0.493048 1.98467 0
M  V30 10457 H 986.085 -1.37378 3.62224 0
M  V30 10458 H 986.499 0.133723 5.2433 0
M  V30 10459 H 987.973 -1.57582 5.29029 0
M  V30 10460 H 988.45 -2.28628 3.75001 0
M  V30 10461 H 989.056 -0.675489 4.19901 0
M  V30 10462 N 987.371 -1.57444 0.0701946 0
M  V30 10463 C 988.321 -2.09154 -0.90767 0
M  V30 10464 C 989.305 -1.00087 -1.25982 0
M  V30 10465 O 990.497 -1.26397 -1.23906 0
M  V30 10466 C 987.626 -2.65544 -2.17581 0
M  V30 10467 C 986.712 -3.81613 -1.85021 0
M  V30 10468 N 987.103 -4.90641 -1.22904 0
M  V30 10469 C 985.401 -3.90878 -2.1478 0
M  V30 10470 C 986.102 -5.71511 -1.084 0
M  V30 10471 N 985.078 -5.1973 -1.59318 0
M  V30 10472 H 988.88 -2.90839 -0.423051 0
M  V30 10473 H 986.394 -1.61848 -0.13374 0
M  V30 10474 H 988.391 -3.00904 -2.88552 0
M  V30 10475 H 987.051 -1.85304 -2.66632 0
M  V30 10476 H 988.062 -5.1004 -0.898878 0
M  V30 10477 H 984.739 -3.21611 -2.66219 0
M  V30 10478 H 986.129 -6.69214 -0.600183 0
M  V30 10479 N 988.849 0.203349 -1.56283 0
M  V30 10480 C 989.779 1.2549 -1.96912 0
M  V30 10481 C 990.76 1.47919 -0.839884 0
M  V30 10482 O 991.945 1.59795 -1.10359 0
M  V30 10483 C 989.075 2.6009 -2.30153 0
M  V30 10484 C 988.029 2.52289 -3.45738 0
M  V30 10485 C 987.355 3.91086 -3.64632 0
M  V30 10486 C 988.655 2.05503 -4.80173 0
M  V30 10487 H 990.349 0.917306 -2.85002 0
M  V30 10488 H 987.895 0.439818 -1.37119 0
M  V30 10489 H 989.848 3.33829 -2.5717 0
M  V30 10490 H 988.572 2.95574 -1.38937 0
M  V30 10491 H 987.231 1.81006 -3.18798 0
M  V30 10492 H 986.879 4.23908 -2.7076 0
M  V30 10493 H 986.579 3.86742 -4.42385 0
M  V30 10494 H 988.103 4.66459 -3.94016 0
M  V30 10495 H 989.517 2.68995 -5.06275 0
M  V30 10496 H 987.914 2.1218 -5.61337 0
M  V30 10497 H 988.984 1.00793 -4.74309 0
M  V30 10498 N 990.327 1.50405 0.470755 0
M  V30 10499 C 991.29 1.68741 1.5511 0
M  V30 10500 C 992.29 0.558116 1.50804 0
M  V30 10501 O 993.48 0.825149 1.53418 0
M  V30 10502 C 990.612 1.71295 2.94739 0
M  V30 10503 H 991.805 2.65127 1.40169 0
M  V30 10504 H 989.358 1.39891 0.697156 0
M  V30 10505 H 990.093 0.766029 3.15123 0
M  V30 10506 H 989.878 2.53336 2.99271 0
M  V30 10507 H 991.368 1.87434 3.73173 0
M  V30 10508 N 991.805 -0.723954 1.39988 0
M  V30 10509 C 993.052 -1.48371 1.37812 0
M  V30 10510 C 993.38 -1.94487 -0.0223285 0
M  V30 10511 O 992.635 -1.67906 -1.00529 0
M  V30 10512 C 992.934 -2.73004 2.30659 0
M  V30 10513 C 992.6 -2.45698 3.78078 0
M  V30 10514 C 991.262 -2.37961 4.18244 0
M  V30 10515 C 993.614 -2.22601 4.71273 0
M  V30 10516 C 990.942 -2.05183 5.49652 0
M  V30 10517 C 993.294 -1.91339 6.0297 0
M  V30 10518 C 991.958 -1.82078 6.42187 0
M  V30 10519 H 991.228 -0.542929 0.504291 0
M  V30 10520 H 993.875 -0.829986 1.72579 0
M  V30 10521 H 992.18 -3.43174 1.89048 0
M  V30 10522 H 993.877 -3.31068 2.26263 0
M  V30 10523 H 990.467 -2.52603 3.46251 0
M  V30 10524 H 994.651 -2.2754 4.41066 0
M  V30 10525 H 989.907 -1.96544 5.78948 0
M  V30 10526 H 994.081 -1.72479 6.74703 0
M  V30 10527 H 991.708 -1.56446 7.43928 0
M  V30 10528 N 993.283 -1.25346 -0.955304 0
M  V30 10529 C 994.529 -1.10218 -1.70235 0
M  V30 10530 C 994.862 0.356124 -1.90907 0
M  V30 10531 O 994.137 1.26253 -1.47954 0
M  V30 10532 C 994.42 -1.85627 -3.08569 0
M  V30 10533 C 994.273 -3.39281 -2.95311 0
M  V30 10534 C 995.592 -1.63886 -4.08448 0
M  V30 10535 H 992.711 -0.401781 -0.617852 0
M  V30 10536 H 995.353 -1.5417 -1.11048 0
M  V30 10537 H 993.503 -1.48269 -3.59094 0
M  V30 10538 H 995.175 -3.8631 -2.52116 0
M  V30 10539 H 993.418 -3.67027 -2.31244 0
M  V30 10540 H 994.089 -3.87258 -3.93364 0
M  V30 10541 H 996.565 -1.96406 -3.6683 0
M  V30 10542 H 995.441 -2.19087 -5.03281 0
M  V30 10543 H 995.702 -0.580021 -4.38279 0
M  V30 10544 N 994.761 1.15782 -1.06922 0
M  V30 10545 C 995.711 2.18373 -0.655537 0
M  V30 10546 C 996.695 1.57745 0.317084 0
M  V30 10547 O 997.887 1.76511 0.131509 0
M  V30 10548 C 995.016 3.43263 -0.0502314 0
M  V30 10549 C 994.102 4.10954 -1.04773 0
M  V30 10550 N 994.493 4.542 -2.22567 0
M  V30 10551 C 992.791 4.3723 -0.880087 0
M  V30 10552 C 993.492 5.06641 -2.85815 0
M  V30 10553 N 992.468 4.99917 -2.13505 0
M  V30 10554 H 996.27 2.49533 -1.55276 0
M  V30 10555 H 993.784 1.32303 -0.941793 0
M  V30 10556 H 995.781 4.16063 0.264003 0
M  V30 10557 H 994.441 3.13588 0.842167 0
M  V30 10558 H 995.452 4.47727 -2.60309 0
M  V30 10559 H 992.129 4.17481 -0.0402148 0
M  V30 10560 H 993.519 5.50092 -3.85808 0
M  V30 10561 N 996.239 0.8527 1.3254 0
M  V30 10562 C 997.487 0.454224 1.96929 0
M  V30 10563 C 997.808 -0.993034 1.67821 0
M  V30 10564 O 997.078 -1.69371 0.984393 0
M  V30 10565 H 995.658 0.164977 0.728554 0
M  V30 10566 H 998.32 1.0887 1.61658 0
M  V30 10567 H 997.416 0.597667 3.06324 0
M  V30 10568 N 997.718 -1.45297 0.610449 0
M  V30 10569 C 998.964 -2.02518 0.106917 0
M  V30 10570 C 999.297 -1.47747 -1.26034 0
M  V30 10571 O 998.572 -0.65329 -1.832 0
M  V30 10572 C 998.855 -3.6003 0.0710975 0
M  V30 10573 C 998.708 -4.25128 1.46922 0
M  V30 10574 C 1000.03 -4.35778 -0.61524 0
M  V30 10575 H 997.146 -0.735896 0.040327 0
M  V30 10576 H 999.788 -1.73117 0.782968 0
M  V30 10577 H 997.938 -3.85209 -0.504611 0
M  V30 10578 H 999.61 -4.11125 2.09223 0
M  V30 10579 H 997.853 -3.83418 2.02911 0
M  V30 10580 H 998.524 -5.34046 1.39637 0
M  V30 10581 H 1001 -4.1591 -0.125871 0
M  V30 10582 H 999.876 -5.45506 -0.609419 0
M  V30 10583 H 1000.14 -4.08859 -1.68186 0
M  V30 10584 N 999.196 -0.349774 -1.5367 0
M  V30 10585 C 1000.44 0.245095 -2.02925 0
M  V30 10586 C 1000.8 1.4727 -1.23189 0
M  V30 10587 O 1002 2.14215 -1.62374 0
M  V30 10588 C 1000.27 0.545392 -3.53214 0
M  V30 10589 S 1001.83 1.11619 -4.24366 0
M  V30 10590 H 998.649 0.0725368 -0.70729 0
M  V30 10591 H 1001.25 -0.488979 -1.89286 0
M  V30 10592 H 999.955 -0.355786 -4.08855 0
M  V30 10593 H 999.486 1.30897 -3.70985 0
M  V30 10594 H 1001.5 2.40151 -4.34214 0
M  V30 10595 N 1000.67 1.57404 -0.0785433 0
M  V30 10596 C 1001.92 1.94031 0.589896 0
M  V30 10597 C 1002.25 0.959297 1.68852 0
M  V30 10598 O 1001.53 -0.0103978 1.94497 0
M  V30 10599 C 1001.81 3.40886 1.16055 0
M  V30 10600 C 1001.66 4.49748 0.0681072 0
M  V30 10601 C 1002.98 3.88699 2.06401 0
M  V30 10602 H 1000.1 0.70556 0.212965 0
M  V30 10603 H 1002.74 1.89439 -0.145886 0
M  V30 10604 H 1000.89 3.4493 1.78761 0
M  V30 10605 H 1002.57 4.57823 -0.565318 0
M  V30 10606 H 1000.81 4.29625 -0.600431 0
M  V30 10607 H 1001.48 5.49658 0.507906 0
M  V30 10608 H 1003.96 3.86703 1.53622 0
M  V30 10609 H 1002.83 4.92052 2.43261 0
M  V30 10610 H 1003.09 3.2703 2.97496 0
M  V30 10611 N 1002.15 -0.195058 1.56388 0
M  V30 10612 C 1003.57 -0.545894 1.49974 0
M  V30 10613 C 1003.77 -1.85851 0.778568 0
M  V30 10614 O 1002.82 -2.50346 0.329105 0
M  V30 10615 C 1004.14 -0.600599 2.94641 0
M  V30 10616 C 1005.68 -0.689429 3.05313 0
M  V30 10617 C 1006.16 -0.775243 4.51391 0
M  V30 10618 N 1007.65 -0.838769 4.55542 0
M  V30 10619 C 1008.39 -0.925337 5.65884 0
M  V30 10620 N 1007.88 -0.974204 6.85916 0
M  V30 10621 N 1009.67 -0.962528 5.53798 0
M  V30 10622 H 1001.83 0.66595 2.0169 0
M  V30 10623 H 1004.09 0.237215 0.917842 0
M  V30 10624 H 1003.79 0.29478 3.50462 0
M  V30 10625 H 1003.67 -1.45528 3.47996 0
M  V30 10626 H 1006.06 -1.57524 2.4954 0
M  V30 10627 H 1006.14 0.191451 2.55083 0
M  V30 10628 H 1005.78 0.106215 5.07789 0
M  V30 10629 H 1005.71 -1.67193 4.99354 0
M  V30 10630 H 1008.2 -0.810249 3.69112 0
M  V30 10631 H 1008.51 -1.04077 7.6576 0
M  V30 10632 H 1006.86 -0.942881 6.88574 0
M  V30 10633 H 1010.05 -0.921188 4.58946 0
M  V30 10634 H 1010.22 -1.02653 6.39817 0
M  V30 10635 N 1003.63 -1.50653 -0.462772 0
M  V30 10636 C 1004.88 -1.61737 -1.21184 0
M  V30 10637 C 1005.2 -0.32369 -1.92295 0
M  V30 10638 O 1004.47 0.659269 -1.84473 0
M  V30 10639 H 1003.05 -0.596015 -0.450306 0
M  V30 10640 H 1005.71 -1.87469 -0.533051 0
M  V30 10641 H 1004.81 -2.43262 -1.95525 0
M  V30 10642 N 1005.11 0.71652 -1.4037 0
M  V30 10643 C 1006.52 1.29562 -1.34427 0
M  V30 10644 C 1006.87 1.96192 -0.0173106 0
M  V30 10645 O 1006 1.97488 0.884719 0
M  V30 10646 C 1006.59 2.35601 -2.4347 0
M  V30 10647 C 1005.15 2.89138 -2.4099 0
M  V30 10648 C 1004.3 1.62915 -2.24397 0
M  V30 10649 H 1007.25 0.512715 -1.5019 0
M  V30 10650 H 1007.27 3.16422 -2.11323 0
M  V30 10651 H 1006.78 1.87077 -3.40035 0
M  V30 10652 H 1004.88 3.41894 -1.4812 0
M  V30 10653 H 1004.99 3.40995 -3.3654 0
M  V30 10654 H 1003.36 1.87947 -1.71896 0
M  V30 10655 H 1004.14 1.16417 -3.22958 0
M  V30 10656 N 1006.59 1.25851 0.948643 0
M  V30 10657 C 1007.5 1.08516 2.07994 0
M  V30 10658 C 1008.51 0.0206696 1.73988 0
M  V30 10659 O 1009.69 0.222854 2.00163 0
M  V30 10660 C 1006.75 0.712145 3.39307 0
M  V30 10661 C 1005.81 1.85523 3.87143 0
M  V30 10662 C 1005.05 1.49992 5.1219 0
M  V30 10663 O 1005.27 0.398268 5.69008 0
M  V30 10664 O 1004.2 2.33215 5.54882 0
M  V30 10665 H 1008.03 2.03405 2.25522 0
M  V30 10666 H 1005.62 1.04844 1.06433 0
M  V30 10667 H 1007.5 0.516512 4.18223 0
M  V30 10668 H 1006.17 -0.207416 3.23035 0
M  V30 10669 H 1005.08 2.10578 3.09205 0
M  V30 10670 H 1006.41 2.75425 4.07924 0
M  V30 10671 N 1008.06 -1.15214 1.07534 0
M  V30 10672 C 1009.01 -2.22078 0.69168 0
M  V30 10673 C 1010.01 -1.66751 -0.298382 0
M  V30 10674 O 1011.21 -1.7927 -0.161897 0
M  V30 10675 H 1007.59 -0.723347 0.205604 0
M  V30 10676 H 1009.56 -2.51716 1.60256 0
M  V30 10677 C 1008.31 -3.47534 0.107546 0
M  V30 10678 H 1007.63 -3.90429 0.860522 0
M  V30 10679 H 1009.07 -4.23821 -0.123215 0
M  V30 10680 C 1007.53 -3.16583 -1.15226 0
M  V30 10681 O 1008.06 -3.33551 -2.23845 0
M  V30 10682 N 1006.27 -2.70611 -1.05915 0
M  V30 10683 H 1005.81 -2.57004 -0.175198 0
M  V30 10684 H 1005.77 -2.50277 -1.90287 0
M  V30 10685 N 1009.54 -0.859717 -1.32086 0
M  V30 10686 C 1010.79 -0.461779 -1.96343 0
M  V30 10687 C 1011.1 0.988837 -1.68764 0
M  V30 10688 O 1012.31 1.49244 -2.268 0
M  V30 10689 C 1010.77 -0.77484 -3.5146 0
M  V30 10690 C 1010.37 -2.24153 -3.87891 0
M  V30 10691 C 1012.12 -0.444873 -4.22162 0
M  V30 10692 C 1010.03 -2.49754 -5.36075 0
M  V30 10693 H 1008.96 -0.168951 -0.734828 0
M  V30 10694 H 1011.61 -1.0512 -1.50406 0
M  V30 10695 H 1009.99 -0.114792 -3.95834 0
M  V30 10696 H 1011.16 -2.94378 -3.54511 0
M  V30 10697 H 1009.48 -2.53651 -3.30227 0
M  V30 10698 H 1012.07 -0.613508 -5.31169 0
M  V30 10699 H 1012.42 0.61391 -4.11749 0
M  V30 10700 H 1012.95 -1.06103 -3.83389 0
M  V30 10701 H 1009.69 -3.54276 -5.51515 0
M  V30 10702 H 1009.21 -1.84112 -5.70844 0
M  V30 10703 H 1010.89 -2.3396 -6.03218 0
M  V30 10704 N 1011.02 1.44971 -0.618145 0
M  V30 10705 C 1011.95 2.27748 0.143561 0
M  V30 10706 C 1012.93 1.37768 0.863642 0
M  V30 10707 O 1014.12 1.67203 0.870373 0
M  V30 10708 C 1011.24 3.16394 1.20883 0
M  V30 10709 C 1010.29 4.22389 0.590724 0
M  V30 10710 S 1011.12 5.32021 -0.609406 0
M  V30 10711 C 1012.28 6.24235 0.456199 0
M  V30 10712 H 1012.51 2.92003 -0.558699 0
M  V30 10713 H 1010.04 1.48968 -0.40595 0
M  V30 10714 H 1012 3.6802 1.81855 0
M  V30 10715 H 1010.66 2.51384 1.88322 0
M  V30 10716 H 1009.86 4.84379 1.3926 0
M  V30 10717 H 1009.46 3.73958 0.055917 0
M  V30 10718 H 1011.75 6.64269 1.33238 0
M  V30 10719 H 1012.69 7.07985 -0.127794 0
M  V30 10720 H 1013.1 5.59137 0.776269 0
M  V30 10721 N 1012.5 0.357919 1.53482 0
M  V30 10722 C 1013.74 -0.23451 2.0144 0
M  V30 10723 C 1014.08 -1.49044 1.24497 0
M  V30 10724 O 1013.35 -1.91566 0.336535 0
M  V30 10725 C 1013.64 -0.534193 3.56116 0
M  V30 10726 C 1013.49 0.734834 4.43757 0
M  V30 10727 C 1014.81 -1.33793 4.1927 0
M  V30 10728 H 1011.93 -0.0837595 0.732225 0
M  V30 10729 H 1014.57 0.481297 1.83803 0
M  V30 10730 H 1012.72 -1.144 3.71275 0
M  V30 10731 H 1014.39 1.37251 4.40409 0
M  V30 10732 H 1012.63 1.35678 4.12036 0
M  V30 10733 H 1013.3 0.48021 5.49907 0
M  V30 10734 H 1015.78 -0.822158 4.07897 0
M  V30 10735 H 1014.66 -1.51636 5.27539 0
M  V30 10736 H 1014.92 -2.34423 3.74831 0
M  V30 10737 N 1013.98 -1.5736 0.0868897 0
M  V30 10738 C 1015.2 -1.98388 -0.587349 0
M  V30 10739 C 1015.62 -0.965757 -1.6223 0
M  V30 10740 O 1014.98 0.0456981 -1.82443 0
M  V30 10741 C 1015.03 -3.39479 -1.24242 0
M  V30 10742 O 1014.75 -4.37393 -0.248878 0
M  V30 10743 C 1016.25 -3.95465 -2.00305 0
M  V30 10744 H 1013.47 -0.652111 -0.15809 0
M  V30 10745 H 1016.01 -2.03843 0.163754 0
M  V30 10746 H 1014.17 -3.35063 -1.94451 0
M  V30 10747 H 1014.58 -5.19525 -0.720678 0
M  V30 10748 H 1016.06 -4.96363 -2.41511 0
M  V30 10749 H 1016.53 -3.32832 -2.86565 0
M  V30 10750 H 1017.14 -4.03328 -1.34931 0
M  V30 10751 N 1015.45 0.186762 -1.56489 0
M  V30 10752 C 1016.36 1.25169 -1.98419 0
M  V30 10753 C 1017.38 1.49329 -0.893124 0
M  V30 10754 O 1018.56 1.61781 -1.19954 0
M  V30 10755 C 1015.62 2.57422 -2.32239 0
M  V30 10756 C 1014.68 2.4126 -3.55095 0
M  V30 10757 C 1013.92 3.67206 -3.87292 0
M  V30 10758 O 1014.14 4.71731 -3.20665 0
M  V30 10759 O 1013.07 3.62238 -4.80695 0
M  V30 10760 H 1016.9 0.925834 -2.89244 0
M  V30 10761 H 1014.48 0.392421 -1.44154 0
M  V30 10762 H 1016.37 3.35466 -2.5503 0
M  V30 10763 H 1015.04 2.89618 -1.44579 0
M  V30 10764 H 1013.95 1.61299 -3.37541 0
M  V30 10765 H 1015.28 2.13994 -4.43247 0
M  V30 10766 N 1016.93 1.50896 0.454776 0
M  V30 10767 C 1018.16 1.66239 1.22671 0
M  V30 10768 C 1018.57 0.351876 1.85899 0
M  V30 10769 O 1017.91 -0.677848 1.70736 0
M  V30 10770 C 1017.98 2.70812 2.36434 0
M  V30 10771 C 1017.64 4.13913 1.93714 0
M  V30 10772 C 1018.64 4.99259 1.45039 0
M  V30 10773 C 1016.32 4.59921 2.01937 0
M  V30 10774 C 1018.32 6.28667 1.05151 0
M  V30 10775 C 1016 5.89329 1.6166 0
M  V30 10776 C 1017 6.73529 1.13347 0
M  V30 10777 O 1016.69 8.0052 0.736354 0
M  V30 10778 H 1016.42 0.561443 0.376508 0
M  V30 10779 H 1018.97 1.97974 0.547325 0
M  V30 10780 H 1017.2 2.34355 3.07595 0
M  V30 10781 H 1018.89 2.7521 2.98353 0
M  V30 10782 H 1019.66 4.64925 1.38095 0
M  V30 10783 H 1015.54 3.94518 2.38488 0
M  V30 10784 H 1019.08 6.94339 0.673711 0
M  V30 10785 H 1014.98 6.23182 1.68269 0
M  V30 10786 H 1015.75 8.1393 0.863759 0
M  V30 10787 N 1018.41 -0.709066 1.40748 0
M  V30 10788 C 1019.66 -1.47119 1.39585 0
M  V30 10789 C 1019.99 -1.942 0.000245323 0
M  V30 10790 O 1019.26 -1.68609 -0.969593 0
M  V30 10791 C 1019.55 -2.69266 2.39099 0
M  V30 10792 C 1019.4 -2.28037 3.8771 0
M  V30 10793 C 1020.72 -3.71438 2.36055 0
M  V30 10794 H 1017.84 -0.533632 0.508336 0
M  V30 10795 H 1020.48 -0.808718 1.7193 0
M  V30 10796 H 1018.63 -3.25788 2.11647 0
M  V30 10797 H 1020.3 -1.76946 4.26014 0
M  V30 10798 H 1018.55 -1.59966 4.03229 0
M  V30 10799 H 1019.22 -3.15621 4.52866 0
M  V30 10800 H 1021.69 -3.24559 2.60385 0
M  V30 10801 H 1020.57 -4.54532 3.07721 0
M  V30 10802 H 1020.83 -4.20193 1.37443 0
M  V30 10803 N 1019.89 -1.26353 -0.941956 0
M  V30 10804 C 1020.8 -1.09618 -2.07415 0
M  V30 10805 C 1021.82 -0.0298963 -1.73974 0
M  V30 10806 O 1022.99 -0.233466 -2.00042 0
M  V30 10807 C 1020.06 -0.73013 -3.38925 0
M  V30 10808 C 1019.12 -1.87574 -3.86153 0
M  V30 10809 C 1018.35 -1.52706 -5.11387 0
M  V30 10810 O 1018.57 -0.428438 -5.68789 0
M  V30 10811 O 1017.51 -2.36154 -5.53638 0
M  V30 10812 H 1021.33 -2.04598 -2.2444 0
M  V30 10813 H 1018.92 -1.05407 -1.05876 0
M  V30 10814 H 1020.8 -0.538684 -4.17943 0
M  V30 10815 H 1019.48 0.190282 -3.2314 0
M  V30 10816 H 1018.38 -2.12214 -3.08084 0
M  V30 10817 H 1019.72 -2.77585 -4.06457 0
M  V30 10818 N 1021.37 1.14642 -1.08144 0
M  V30 10819 C 1022.32 2.17665 -0.678661 0
M  V30 10820 C 1023.3 1.58072 0.300336 0
M  V30 10821 O 1024.49 1.7664 0.112781 0
M  V30 10822 C 1021.62 3.43191 -0.0866362 0
M  V30 10823 C 1020.71 4.0982 -1.09126 0
M  V30 10824 N 1021.1 4.51814 -2.27372 0
M  V30 10825 C 1019.4 4.36272 -0.926411 0
M  V30 10826 C 1020.1 5.03581 -2.91172 0
M  V30 10827 N 1019.07 4.97624 -2.18795 0
M  V30 10828 H 1022.88 2.47872 -1.57914 0
M  V30 10829 H 1020.39 1.31296 -0.955772 0
M  V30 10830 H 1022.39 4.1632 0.219859 0
M  V30 10831 H 1021.05 3.14464 0.80886 0
M  V30 10832 H 1022.06 4.44941 -2.65044 0
M  V30 10833 H 1018.74 4.17414 -0.084492 0
M  V30 10834 H 1020.13 5.45969 -3.91621 0
M  V30 10835 N 1022.85 0.866709 1.31628 0
M  V30 10836 C 1024.09 0.475086 1.96437 0
M  V30 10837 C 1024.41 -0.975179 1.68865 0
M  V30 10838 O 1023.68 -1.68317 1.0023 0
M  V30 10839 H 1022.26 0.172695 0.726764 0
M  V30 10840 H 1024.93 1.10578 1.60494 0
M  V30 10841 H 1024.02 0.630123 3.05673 0
M  V30 10842 N 1024.32 -1.44642 0.625825 0
M  V30 10843 C 1025.73 -1.85502 0.211175 0
M  V30 10844 C 1026.09 -1.52356 -1.2362 0
M  V30 10845 O 1025.21 -0.959051 -1.93988 0
M  V30 10846 C 1025.81 -3.36702 0.37648 0
M  V30 10847 C 1024.36 -3.76396 0.0163795 0
M  V30 10848 C 1023.51 -2.68517 0.692368 0
M  V30 10849 H 1026.46 -1.35183 0.831333 0
M  V30 10850 H 1026.48 -3.78536 -0.386106 0
M  V30 10851 H 1026 -3.60795 1.42999 0
M  V30 10852 H 1024.1 -3.57919 -1.0356 0
M  V30 10853 H 1024.21 -4.77231 0.422742 0
M  V30 10854 H 1022.57 -2.54377 0.128191 0
M  V30 10855 H 1023.36 -2.95444 1.74837 0
M  V30 10856 N 1025.8 -0.366053 -1.5329 0
M  V30 10857 C 1026.73 0.47211 -2.28677 0
M  V30 10858 C 1027.71 1.08353 -1.31125 0
M  V30 10859 O 1028.9 1.10069 -1.59995 0
M  V30 10860 C 1026.03 1.61174 -3.07637 0
M  V30 10861 C 1024.98 1.12755 -4.12881 0
M  V30 10862 C 1024.31 2.35745 -4.79925 0
M  V30 10863 C 1025.61 0.211954 -5.2187 0
M  V30 10864 H 1027.3 -0.156838 -2.98989 0
M  V30 10865 H 1024.85 -0.0768709 -1.43795 0
M  V30 10866 H 1026.8 2.20473 -3.59123 0
M  V30 10867 H 1025.52 2.26793 -2.35016 0
M  V30 10868 H 1024.18 0.557234 -3.6234 0
M  V30 10869 H 1023.83 2.99821 -4.03877 0
M  V30 10870 H 1023.53 2.04019 -5.51044 0
M  V30 10871 H 1025.06 2.95729 -5.34207 0
M  V30 10872 H 1026.47 0.71244 -5.68856 0
M  V30 10873 H 1024.87 -0.0144501 -6.00098 0
M  V30 10874 H 1025.94 -0.745753 -4.79131 0
M  V30 10875 N 1027.28 1.57312 -0.0952337 0
M  V30 10876 C 1028.56 1.85822 0.610715 0
M  V30 10877 C 1028.94 0.992114 1.86334 0
M  V30 10878 O 1028.28 0.0645669 2.28409 0
M  V30 10879 C 1028.49 3.36492 0.925967 0
M  V30 10880 C 1029.84 4.0455 1.28936 0
M  V30 10881 O 1030.87 3.41374 1.01698 0
M  V30 10882 O 1029.73 5.16024 1.79949 0
M  V30 10883 H 1026.82 0.768454 0.305626 0
M  V30 10884 H 1029.37 1.69217 -0.127941 0
M  V30 10885 H 1028.14 3.91282 0.0373127 0
M  V30 10886 H 1027.76 3.58443 1.7206 0
M  V30 10887 N 1028.76 -0.17846 1.56586 0
M  V30 10888 C 1030 -0.897562 1.81856 0
M  V30 10889 C 1030.34 -1.82204 0.671955 0
M  V30 10890 O 1029.61 -1.91739 -0.326535 0
M  V30 10891 C 1029.89 -1.69942 3.17477 0
M  V30 10892 C 1029.75 -0.798545 4.42655 0
M  V30 10893 C 1031.07 -2.66861 3.49962 0
M  V30 10894 H 1028.19 -0.324863 0.661539 0
M  V30 10895 H 1030.83 -0.164106 1.8929 0
M  V30 10896 H 1028.98 -2.32471 3.11271 0
M  V30 10897 H 1030.65 -0.18668 4.60922 0
M  V30 10898 H 1028.89 -0.106181 4.3367 0
M  V30 10899 H 1029.56 -1.39496 5.34083 0
M  V30 10900 H 1032.04 -2.1446 3.56576 0
M  V30 10901 H 1030.92 -3.20037 4.45946 0
M  V30 10902 H 1031.18 -3.46715 2.74301 0
M  V30 10903 N 1030.24 -1.51135 -0.446768 0
M  V30 10904 C 1031.48 -1.64542 -1.19573 0
M  V30 10905 C 1031.84 -0.352728 -1.89139 0
M  V30 10906 O 1031.13 0.650917 -1.80204 0
M  V30 10907 C 1031.32 -2.78034 -2.2457 0
M  V30 10908 C 1031.15 -4.18214 -1.65308 0
M  V30 10909 C 1029.92 -4.84284 -1.44212 0
M  V30 10910 C 1032.12 -5.01631 -1.13451 0
M  V30 10911 N 1030.1 -6.08606 -0.804486 0
M  V30 10912 C 1031.47 -6.16876 -0.621577 0
M  V30 10913 C 1033.53 -4.87227 -1.02537 0
M  V30 10914 C 1032.23 -7.19299 -0.0102361 0
M  V30 10915 C 1034.26 -5.8985 -0.427936 0
M  V30 10916 C 1033.62 -7.04361 0.0745026 0
M  V30 10917 H 1029.72 -0.656068 -0.425556 0
M  V30 10918 H 1032.3 -1.88334 -0.493802 0
M  V30 10919 H 1030.47 -2.55922 -2.92162 0
M  V30 10920 H 1032.21 -2.8067 -2.91558 0
M  V30 10921 H 1028.96 -4.4199 -1.70123 0
M  V30 10922 H 1029.38 -6.75126 -0.503379 0
M  V30 10923 H 1034.03 -3.98959 -1.39971 0
M  V30 10924 H 1031.74 -8.07224 0.376252 0
M  V30 10925 H 1035.33 -5.80773 -0.34552 0
M  V30 10926 H 1034.21 -7.8241 0.529535 0
M  V30 10927 N 1031.71 0.701592 -1.41122 0
M  V30 10928 C 1032.64 1.82815 -1.45262 0
M  V30 10929 C 1033.62 1.67215 -0.311939 0
M  V30 10930 O 1034.81 1.87038 -0.522538 0
M  V30 10931 C 1031.94 3.20899 -1.32819 0
M  V30 10932 C 1030.89 3.51194 -2.44636 0
M  V30 10933 C 1030.22 4.8857 -2.17263 0
M  V30 10934 C 1031.52 3.50777 -3.86979 0
M  V30 10935 H 1033.21 1.79608 -2.39544 0
M  V30 10936 H 1030.76 0.862693 -1.15298 0
M  V30 10937 H 1032.71 3.99417 -1.34329 0
M  V30 10938 H 1031.44 3.24717 -0.350191 0
M  V30 10939 H 1030.1 2.75024 -2.42399 0
M  V30 10940 H 1029.74 4.89007 -1.17819 0
M  V30 10941 H 1029.44 5.09805 -2.92186 0
M  V30 10942 H 1030.97 5.69405 -2.20478 0
M  V30 10943 H 1032.38 4.19309 -3.90964 0
M  V30 10944 H 1030.78 3.83542 -4.61536 0
M  V30 10945 H 1031.85 2.49873 -4.15562 0
M  V30 10946 N 1033.19 1.2685 0.935242 0
M  V30 10947 C 1034.61 1.04091 1.20984 0
M  V30 10948 C 1034.81 -0.230242 2.0018 0
M  V30 10949 O 1033.86 -0.93778 2.3444 0
M  V30 10950 C 1035.18 2.27586 1.96533 0
M  V30 10951 C 1036.72 2.32547 2.09501 0
M  V30 10952 C 1037.2 3.55751 2.88454 0
M  V30 10953 N 1038.69 3.56263 2.96025 0
M  V30 10954 C 1039.43 4.48262 3.57559 0
M  V30 10955 N 1038.92 5.50557 4.20546 0
M  V30 10956 N 1040.71 4.35901 3.5489 0
M  V30 10957 H 1032.87 2.08484 0.405954 0
M  V30 10958 H 1035.13 0.916548 0.242164 0
M  V30 10959 H 1034.83 3.20076 1.45753 0
M  V30 10960 H 1034.71 2.32305 2.97177 0
M  V30 10961 H 1037.1 1.40568 2.5947 0
M  V30 10962 H 1037.18 2.31836 1.08101 0
M  V30 10963 H 1036.82 4.48063 2.3917 0
M  V30 10964 H 1036.75 3.53711 3.90123 0
M  V30 10965 H 1039.24 2.82278 2.51252 0
M  V30 10966 H 1039.55 6.16935 4.65415 0
M  V30 10967 H 1037.9 5.54407 4.19115 0
M  V30 10968 H 1041.09 3.552 3.04879 0
M  V30 10969 H 1041.26 5.07792 4.02557 0
M  V30 10970 N 1034.67 -1.14067 1.0875 0
M  V30 10971 C 1036.09 -1.37173 0.815823 0
M  V30 10972 C 1036.29 -1.93175 -0.573215 0
M  V30 10973 O 1035.34 -2.14672 -1.32937 0
M  V30 10974 C 1036.66 -2.32955 1.90138 0
M  V30 10975 C 1038.2 -2.46586 1.9278 0
M  V30 10976 C 1038.68 -3.4567 3.0046 0
M  V30 10977 N 1040.17 -3.53216 2.99655 0
M  V30 10978 C 1040.9 -4.29743 3.79616 0
M  V30 10979 N 1040.4 -5.09484 4.69466 0
M  V30 10980 N 1042.19 -4.24975 3.67903 0
M  V30 10981 H 1034.34 -0.760648 1.98313 0
M  V30 10982 H 1036.61 -0.397135 0.860807 0
M  V30 10983 H 1036.31 -1.98949 2.90021 0
M  V30 10984 H 1036.19 -3.32897 1.77368 0
M  V30 10985 H 1038.57 -2.79882 0.935404 0
M  V30 10986 H 1038.66 -1.46593 2.09629 0
M  V30 10987 H 1038.3 -3.13106 3.99909 0
M  V30 10988 H 1038.23 -4.45452 2.80856 0
M  V30 10989 H 1040.72 -2.96314 2.34535 0
M  V30 10990 H 1041.03 -5.65163 5.27077 0
M  V30 10991 H 1039.38 -5.08741 4.73506 0
M  V30 10992 H 1042.57 -3.61751 2.97075 0
M  V30 10993 H 1042.74 -4.84364 4.30459 0
M  V30 10994 N 1036.15 -0.873678 -1.31166 0
M  V30 10995 C 1037.06 -0.335726 -2.32185 0
M  V30 10996 C 1038.07 0.556259 -1.64869 0
M  V30 10997 O 1039.25 0.452087 -1.9626 0
M  V30 10998 C 1036.32 0.450822 -3.43756 0
M  V30 10999 C 1035.38 -0.469565 -4.26724 0
M  V30 11000 C 1034.61 0.279538 -5.32967 0
M  V30 11001 O 1034.83 1.50715 -5.50128 0
M  V30 11002 O 1033.77 -0.36452 -6.00795 0
M  V30 11003 H 1037.59 -1.17314 -2.80127 0
M  V30 11004 H 1035.18 -0.637163 -1.35132 0
M  V30 11005 H 1037.06 0.896582 -4.11752 0
M  V30 11006 H 1035.73 1.26472 -2.9797 0
M  V30 11007 H 1034.64 -0.963902 -3.61469 0
M  V30 11008 H 1035.97 -1.24916 -4.76085 0
M  V30 11009 N 1037.63 1.44308 -0.633487 0
M  V30 11010 C 1039.04 1.56768 -0.29931 0
M  V30 11011 C 1039.24 1.62061 1.19743 0
M  V30 11012 O 1038.3 1.56492 1.98158 0
M  V30 11013 C 1039.61 2.8382 -0.993307 0
M  V30 11014 C 1041.16 2.97536 -0.971674 0
M  V30 11015 C 1041.63 4.27393 -1.64618 0
M  V30 11016 N 1043.13 4.34212 -1.61288 0
M  V30 11017 C 1043.86 5.33415 -2.1037 0
M  V30 11018 N 1043.36 6.3901 -2.67653 0
M  V30 11019 N 1045.15 5.24939 -2.00985 0
M  V30 11020 H 1037.3 1.39115 -1.60501 0
M  V30 11021 H 1039.56 0.666804 -0.673852 0
M  V30 11022 H 1039.27 2.85902 -2.04823 0
M  V30 11023 H 1039.14 3.73422 -0.532537 0
M  V30 11024 H 1041.53 2.95005 0.0747854 0
M  V30 11025 H 1041.61 2.09276 -1.47096 0
M  V30 11026 H 1041.26 4.30683 -2.6921 0
M  V30 11027 H 1041.19 5.14515 -1.12171 0
M  V30 11028 H 1043.68 3.58519 -1.19468 0
M  V30 11029 H 1043.99 7.10994 -3.02831 0
M  V30 11030 H 1042.33 6.39689 -2.71705 0
M  V30 11031 H 1045.53 4.41357 -1.55953 0
M  V30 11032 H 1045.7 6.02097 -2.39547 0
M  V30 11033 N 1039.1 0.374177 1.53094 0
M  V30 11034 C 1040.35 -0.212396 2.00981 0
M  V30 11035 C 1040.67 -1.48576 1.26293 0
M  V30 11036 O 1039.94 -1.92206 0.378642 0
M  V30 11037 H 1038.52 -0.0814763 0.742543 0
M  V30 11038 H 1041.19 0.502389 1.88314 0
M  V30 11039 H 1040.28 -0.433316 3.09077 0
M  V30 11040 N 1040.58 -1.57259 0.103575 0
M  V30 11041 C 1041.53 -2.11032 -0.863101 0
M  V30 11042 C 1042.52 -1.02737 -1.2383 0
M  V30 11043 O 1043.71 -1.28997 -1.21197 0
M  V30 11044 C 1040.84 -2.70099 -2.11899 0
M  V30 11045 C 1039.92 -3.85451 -1.76885 0
M  V30 11046 N 1040.31 -4.93137 -1.12469 0
M  V30 11047 C 1038.61 -3.95346 -2.06441 0
M  V30 11048 C 1039.31 -5.73681 -0.962527 0
M  V30 11049 N 1038.29 -5.22992 -1.48258 0
M  V30 11050 H 1042.09 -2.91671 -0.361264 0
M  V30 11051 H 1039.61 -1.62096 -0.0993794 0
M  V30 11052 H 1041.6 -3.06957 -2.82104 0
M  V30 11053 H 1040.26 -1.90918 -2.62641 0
M  V30 11054 H 1041.27 -5.11832 -0.790489 0
M  V30 11055 H 1037.95 -3.27185 -2.59338 0
M  V30 11056 H 1039.34 -6.70337 -0.458098 0
M  V30 11057 N 1042.06 0.170153 -1.56679 0
M  V30 11058 C 1043.31 0.887906 -1.8233 0
M  V30 11059 C 1043.64 1.81845 -0.681608 0
M  V30 11060 O 1042.91 1.9191 0.316362 0
M  V30 11061 C 1043.2 1.68256 -3.18374 0
M  V30 11062 C 1043.05 0.775059 -4.43072 0
M  V30 11063 C 1044.37 2.65001 -3.51372 0
M  V30 11064 H 1041.49 0.32135 -0.663252 0
M  V30 11065 H 1044.13 0.154065 -1.89374 0
M  V30 11066 H 1042.28 2.30817 -3.12499 0
M  V30 11067 H 1043.95 0.162234 -4.61015 0
M  V30 11068 H 1042.2 0.0831809 -4.3372 0
M  V30 11069 H 1042.87 1.36661 -5.34816 0
M  V30 11070 H 1045.34 2.12566 -3.57708 0
M  V30 11071 H 1044.22 3.17667 -4.47637 0
M  V30 11072 H 1044.48 3.45255 -2.76136 0
M  V30 11073 N 1043.54 1.5137 0.438746 0
M  V30 11074 C 1044.95 1.56462 1.01866 0
M  V30 11075 C 1045.3 0.387244 1.9234 0
M  V30 11076 O 1044.43 -0.496131 2.10636 0
M  V30 11077 C 1045.02 2.83557 1.85421 0
M  V30 11078 C 1043.58 2.91224 2.38464 0
M  V30 11079 C 1042.73 2.51109 1.17641 0
M  V30 11080 H 1045.68 1.57167 0.220072 0
M  V30 11081 H 1045.7 2.6724 2.70857 0
M  V30 11082 H 1045.21 3.69229 1.19546 0
M  V30 11083 H 1043.31 2.09979 3.07798 0
M  V30 11084 H 1043.42 3.94844 2.71358 0
M  V30 11085 H 1041.79 2.04276 1.5213 0
M  V30 11086 H 1042.57 3.39125 0.533785 0
M  V30 11087 N 1045.02 -0.694098 1.41492 0
M  V30 11088 C 1045.95 -1.81841 1.37873 0
M  V30 11089 C 1046.93 -1.60732 0.245772 0
M  V30 11090 O 1048.11 -1.83461 0.432917 0
M  V30 11091 C 1045.24 -3.18543 1.15099 0
M  V30 11092 C 1044.28 -3.5844 2.31133 0
M  V30 11093 S 1045.12 -3.63079 3.93617 0
M  V30 11094 C 1046.27 -5.02505 3.73148 0
M  V30 11095 H 1046.51 -1.84634 2.33018 0
M  V30 11096 H 1044.04 -0.862948 1.28033 0
M  V30 11097 H 1046 -3.9746 1.02646 0
M  V30 11098 H 1044.66 -3.13358 0.21572 0
M  V30 11099 H 1043.85 -4.57754 2.10896 0
M  V30 11100 H 1043.45 -2.86837 2.40002 0
M  V30 11101 H 1045.75 -5.90046 3.32945 0
M  V30 11102 H 1046.69 -5.27784 4.72069 0
M  V30 11103 H 1047.1 -4.74113 3.06394 0
M  V30 11104 N 1046.49 -1.27344 -0.928501 0
M  V30 11105 C 1047.46 -1.10043 -2.01055 0
M  V30 11106 C 1048.46 -0.0446793 -1.60738 0
M  V30 11107 O 1049.65 -0.289202 -1.71783 0
M  V30 11108 C 1046.78 -0.676559 -3.34119 0
M  V30 11109 H 1047.97 -2.06126 -2.17835 0
M  V30 11110 H 1045.53 -1.10121 -1.10919 0
M  V30 11111 H 1046.26 0.285697 -3.23039 0
M  V30 11112 H 1046.05 -1.43903 -3.64739 0
M  V30 11113 H 1047.54 -0.577725 -4.13584 0
M  V30 11114 N 1047.97 1.13488 -1.09353 0
M  V30 11115 C 1049.22 1.85234 -0.840227 0
M  V30 11116 C 1049.57 1.81884 0.627379 0
M  V30 11117 O 1048.87 1.24548 1.45596 0
M  V30 11118 C 1049.06 3.32584 -1.30854 0
M  V30 11119 C 1048.89 3.50283 -2.82014 0
M  V30 11120 C 1047.66 3.64569 -3.49883 0
M  V30 11121 C 1049.86 3.46388 -3.80158 0
M  V30 11122 N 1047.84 3.70522 -4.89476 0
M  V30 11123 C 1049.21 3.58701 -5.05701 0
M  V30 11124 C 1051.27 3.29784 -3.73024 0
M  V30 11125 C 1049.97 3.56126 -6.24953 0
M  V30 11126 C 1051.99 3.28516 -4.91763 0
M  V30 11127 C 1051.36 3.4138 -6.16149 0
M  V30 11128 H 1047.46 0.694046 -0.36031 0
M  V30 11129 H 1050.04 1.35949 -1.39377 0
M  V30 11130 H 1048.21 3.80437 -0.78246 0
M  V30 11131 H 1049.94 3.92134 -1.00064 0
M  V30 11132 H 1046.7 3.66211 -3.0031 0
M  V30 11133 H 1047.12 3.77191 -5.62188 0
M  V30 11134 H 1051.76 3.18741 -2.77784 0
M  V30 11135 H 1049.48 3.65942 -7.20494 0
M  V30 11136 H 1053.07 3.16867 -4.87941 0
M  V30 11137 H 1051.95 3.40359 -7.06488 0
M  V30 11138 N 1049.45 0.880621 1.30701 0
M  V30 11139 C 1050.4 0.342397 2.28246 0
M  V30 11140 C 1051.37 -0.565023 1.56194 0
M  V30 11141 O 1052.55 -0.494377 1.84284 0
M  V30 11142 C 1049.69 -0.440859 3.42272 0
M  V30 11143 C 1048.81 0.495284 4.29151 0
M  V30 11144 C 1047.94 -0.303141 5.30334 0
M  V30 11145 C 1046.98 0.628751 6.08862 0
M  V30 11146 N 1046.12 -0.13408 7.01972 0
M  V30 11147 H 1050.96 1.17938 2.73669 0
M  V30 11148 H 1048.49 0.59296 1.34619 0
M  V30 11149 H 1050.45 -0.910854 4.07135 0
M  V30 11150 H 1049.08 -1.24245 2.97931 0
M  V30 11151 H 1048.13 1.08376 3.64635 0
M  V30 11152 H 1049.45 1.2094 4.83916 0
M  V30 11153 H 1048.6 -0.835181 6.00924 0
M  V30 11154 H 1047.34 -1.05049 4.76252 0
M  V30 11155 H 1046.34 1.17246 5.37153 0
M  V30 11156 H 1047.57 1.37512 6.65032 0
M  V30 11157 H 1045.52 -0.864046 6.50285 0
M  V30 11158 H 1045.43 0.520486 7.54206 0
M  V30 11159 H 1046.7 -0.647005 7.7681 0
M  V30 11160 N 1050.93 -1.4397 0.641131 0
M  V30 11161 C 1051.86 -2.27948 -0.10731 0
M  V30 11162 C 1052.84 -1.39124 -0.841615 0
M  V30 11163 O 1054.02 -1.68566 -0.843662 0
M  V30 11164 C 1051.15 -3.18277 -1.15835 0
M  V30 11165 C 1050.2 -4.23276 -0.52345 0
M  V30 11166 S 1051.03 -5.30984 0.693969 0
M  V30 11167 C 1052.19 -6.24882 -0.356831 0
M  V30 11168 H 1052.42 -2.91077 0.605083 0
M  V30 11169 H 1049.95 -1.48303 0.429598 0
M  V30 11170 H 1051.91 -3.70867 -1.75977 0
M  V30 11171 H 1050.57 -2.54348 -1.84299 0
M  V30 11172 H 1049.76 -4.86533 -1.31536 0
M  V30 11173 H 1049.37 -3.74 0.00358355 0
M  V30 11174 H 1051.66 -6.66305 -1.22653 0
M  V30 11175 H 1052.6 -7.07692 0.240412 0
M  V30 11176 H 1053.01 -5.60301 -0.687217 0
M  V30 11177 N 1052.41 -0.382291 -1.52893 0
M  V30 11178 C 1053.65 0.202433 -2.01787 0
M  V30 11179 C 1053.99 1.47044 -1.26853 0
M  V30 11180 O 1053.26 1.91007 -0.366969 0
M  V30 11181 C 1053.54 0.477471 -3.5692 0
M  V30 11182 C 1053.4 -0.805339 -4.42532 0
M  V30 11183 C 1054.72 1.27106 -4.21346 0
M  V30 11184 H 1051.84 0.0720998 -0.733465 0
M  V30 11185 H 1054.48 -0.510478 -1.83014 0
M  V30 11186 H 1052.63 1.08478 -3.73048 0
M  V30 11187 H 1054.3 -1.4424 -4.3817 0
M  V30 11188 H 1052.54 -1.42216 -4.09826 0
M  V30 11189 H 1053.21 -0.567635 -5.49074 0
M  V30 11190 H 1055.69 0.757161 -4.09153 0
M  V30 11191 H 1054.57 1.43225 -5.29885 0
M  V30 11192 H 1054.83 2.28431 -3.78513 0
M  V30 11193 N 1053.89 1.57202 -0.111913 0
M  V30 11194 C 1055.13 1.95239 0.548607 0
M  V30 11195 C 1055.46 0.994897 1.6678 0
M  V30 11196 O 1054.74 0.0308603 1.94476 0
M  V30 11197 C 1055.02 3.43271 1.08798 0
M  V30 11198 C 1054.88 4.49792 -0.0273064 0
M  V30 11199 C 1056.19 3.92989 1.98109 0
M  V30 11200 H 1053.31 0.709919 0.197951 0
M  V30 11201 H 1055.96 1.89087 -0.186036 0
M  V30 11202 H 1054.11 3.48644 1.71404 0
M  V30 11203 H 1055.78 4.56521 -0.662302 0
M  V30 11204 H 1054.02 4.28254 -0.691426 0
M  V30 11205 H 1054.69 5.50612 0.391201 0
M  V30 11206 H 1057.17 3.89875 1.45385 0
M  V30 11207 H 1056.04 4.97101 2.32769 0
M  V30 11208 H 1056.3 3.33267 2.90492 0
M  V30 11209 N 1055.36 -0.161842 1.56767 0
M  V30 11210 C 1056.33 -1.18404 1.96247 0
M  V30 11211 C 1057.33 -1.3667 0.84722 0
M  V30 11212 O 1058.52 -1.33915 1.11411 0
M  V30 11213 C 1055.65 -2.54728 2.26553 0
M  V30 11214 H 1056.84 -0.845703 2.87729 0
M  V30 11215 H 1054.39 -0.404645 1.50971 0
M  V30 11216 H 1055.13 -2.93559 1.37816 0
M  V30 11217 H 1054.91 -2.42834 3.07854 0
M  V30 11218 H 1056.4 -3.28378 2.57987 0
M  V30 11219 N 1056.84 -1.516 -0.430713 0
M  V30 11220 C 1057.77 -1.69594 -1.54177 0
M  V30 11221 C 1058.79 -0.576518 -1.5225 0
M  V30 11222 O 1059.98 -0.85104 -1.56906 0
M  V30 11223 C 1057.08 -1.70148 -2.93092 0
M  V30 11224 C 1056.25 -2.98782 -3.1945 0
M  V30 11225 C 1055.31 -2.91435 -4.38123 0
M  V30 11226 O 1054.33 -3.65372 -4.36454 0
M  V30 11227 N 1055.54 -2.0774 -5.42056 0
M  V30 11228 H 1058.3 -2.65442 -1.39143 0
M  V30 11229 H 1055.86 -1.49569 -0.61974 0
M  V30 11230 H 1057.85 -1.62793 -3.70514 0
M  V30 11231 H 1056.42 -0.818667 -3.0169 0
M  V30 11232 H 1055.64 -3.19954 -2.30267 0
M  V30 11233 H 1056.93 -3.83919 -3.33892 0
M  V30 11234 H 1056.33 -1.47059 -5.46251 0
M  V30 11235 H 1054.89 -2.06259 -6.18305 0
M  V30 11236 N 1058.32 0.686584 -1.41858 0
M  V30 11237 C 1059.25 1.81202 -1.40352 0
M  V30 11238 C 1060.26 1.5993 -0.304322 0
M  V30 11239 O 1061.45 1.69267 -0.566643 0
M  V30 11240 C 1058.55 3.18116 -1.16856 0
M  V30 11241 C 1057.73 3.66339 -2.38987 0
M  V30 11242 C 1056.79 4.8195 -2.11212 0
M  V30 11243 O 1055.81 4.93102 -2.84323 0
M  V30 11244 N 1057.01 5.69829 -1.10793 0
M  V30 11245 H 1059.78 1.82983 -2.37355 0
M  V30 11246 H 1057.34 0.869244 -1.36586 0
M  V30 11247 H 1059.33 3.93097 -0.962125 0
M  V30 11248 H 1057.9 3.11306 -0.284186 0
M  V30 11249 H 1057.12 2.82166 -2.75274 0
M  V30 11250 H 1058.41 3.95297 -3.2034 0
M  V30 11251 H 1057.81 5.63459 -0.503012 0
M  V30 11252 H 1056.36 6.44671 -0.961379 0
M  V30 11253 N 1059.8 1.27835 0.921735 0
M  V30 11254 C 1060.73 1.136 2.04003 0
M  V30 11255 C 1061.71 0.0358756 1.70062 0
M  V30 11256 O 1062.89 0.211438 1.93046 0
M  V30 11257 C 1060.02 0.788697 3.38226 0
M  V30 11258 C 1058.98 1.84272 3.863 0
M  V30 11259 C 1058.3 1.34923 5.17397 0
M  V30 11260 C 1059.6 3.24788 4.09035 0
M  V30 11261 H 1061.3 2.07149 2.1617 0
M  V30 11262 H 1058.84 0.997349 1.0387 0
M  V30 11263 H 1060.8 0.675911 4.15944 0
M  V30 11264 H 1059.52 -0.182499 3.2609 0
M  V30 11265 H 1058.18 1.94451 3.1078 0
M  V30 11266 H 1057.83 0.367328 5.01657 0
M  V30 11267 H 1057.53 2.05397 5.50532 0
M  V30 11268 H 1059.05 1.24951 5.97678 0
M  V30 11269 H 1060.47 3.17575 4.77304 0
M  V30 11270 H 1058.86 3.93025 4.53488 0
M  V30 11271 H 1059.93 3.69398 3.14122 0
M  V30 11272 N 1061.28 -1.12907 1.09954 0
M  V30 11273 C 1062.24 -2.16673 0.747364 0
M  V30 11274 C 1063.24 -1.59208 -0.225741 0
M  V30 11275 O 1064.43 -1.742 -0.00322482 0
M  V30 11276 C 1061.56 -3.40735 0.106169 0
M  V30 11277 H 1062.75 -2.49341 1.6664 0
M  V30 11278 H 1060.31 -1.27828 0.899421 0
M  V30 11279 H 1061.04 -3.13661 -0.82384 0
M  V30 11280 H 1060.83 -3.83717 0.806434 0
M  V30 11281 H 1062.32 -4.17414 -0.12464 0
M  V30 11282 N 1062.75 -0.88754 -1.30232 0
M  V30 11283 C 1063.98 -0.521562 -2.00735 0
M  V30 11284 C 1064.4 0.883247 -1.66073 0
M  V30 11285 O 1063.76 1.58581 -0.878731 0
M  V30 11286 C 1063.81 -0.706521 -3.53611 0
M  V30 11287 O 1062.91 0.246447 -4.11663 0
M  V30 11288 H 1062.25 -0.205216 -0.631492 0
M  V30 11289 H 1064.78 -1.19579 -1.66018 0
M  V30 11290 H 1064.79 -0.606501 -4.03467 0
M  V30 11291 H 1063.47 -1.73076 -3.78177 0
M  V30 11292 H 1062.05 0.0999062 -3.72766 0
M  V30 11293 N 1064.23 1.43628 -0.648757 0
M  V30 11294 C 1065.2 2.29172 0.0360713 0
M  V30 11295 C 1066.2 1.41974 0.754976 0
M  V30 11296 O 1067.39 1.63654 0.5969 0
M  V30 11297 C 1064.52 3.23942 1.0618 0
M  V30 11298 H 1065.71 2.91214 -0.716544 0
M  V30 11299 H 1063.26 1.50833 -0.409759 0
M  V30 11300 H 1064 2.66786 1.8438 0
M  V30 11301 H 1063.78 3.88223 0.550016 0
M  V30 11302 H 1065.27 3.8816 1.54019 0
M  V30 11303 N 1065.71 0.390394 1.52688 0
M  V30 11304 C 1066.64 -0.43567 2.294 0
M  V30 11305 C 1067.62 -1.06253 1.32832 0
M  V30 11306 O 1068.81 -1.07509 1.61726 0
M  V30 11307 C 1065.94 -1.56259 3.10162 0
M  V30 11308 C 1064.89 -1.06172 4.14622 0
M  V30 11309 C 1064.22 -2.2808 4.83615 0
M  V30 11310 C 1065.52 -0.128902 5.22141 0
M  V30 11311 H 1067.21 0.204384 2.98702 0
M  V30 11312 H 1064.76 0.0997377 1.43654 0
M  V30 11313 H 1066.71 -2.14732 3.62585 0
M  V30 11314 H 1065.43 -2.23025 2.38595 0
M  V30 11315 H 1064.09 -0.499518 3.63181 0
M  V30 11316 H 1063.74 -2.93358 4.08595 0
M  V30 11317 H 1063.44 -1.95227 5.5422 0
M  V30 11318 H 1064.96 -2.87193 5.38844 0
M  V30 11319 H 1066.38 -0.621849 5.69917 0
M  V30 11320 H 1064.78 0.109919 5.99999 0
M  V30 11321 H 1065.85 0.821884 4.77884 0
M  V30 11322 N 1067.19 -1.57141 0.120249 0
M  V30 11323 C 1068.41 -2.00017 -0.548454 0
M  V30 11324 C 1068.84 -0.999433 -1.59352 0
M  V30 11325 O 1068.2 0.0286978 -1.81277 0
M  V30 11326 C 1068.24 -3.41766 -1.15015 0
M  V30 11327 O 1067.35 -3.44589 -2.26566 0
M  V30 11328 H 1066.69 -0.649739 -0.136875 0
M  V30 11329 H 1069.22 -2.03529 0.209092 0
M  V30 11330 H 1069.23 -3.80001 -1.48537 0
M  V30 11331 H 1067.9 -4.14117 -0.384681 0
M  V30 11332 H 1066.48 -3.18174 -1.94473 0
M  V30 11333 N 1068.67 0.153526 -1.5685 0
M  V30 11334 C 1069.9 0.881055 -1.86872 0
M  V30 11335 C 1070.3 1.75547 -0.705692 0
M  V30 11336 O 1069.65 1.8064 0.333888 0
M  V30 11337 C 1069.71 1.79429 -3.11521 0
M  V30 11338 C 1069.37 1.0977 -4.43621 0
M  V30 11339 C 1070.37 0.454693 -5.17908 0
M  V30 11340 C 1068.06 1.08915 -4.9035 0
M  V30 11341 C 1070.05 -0.187562 -6.37124 0
M  V30 11342 C 1067.74 0.443084 -6.09492 0
M  V30 11343 C 1068.73 -0.194154 -6.82724 0
M  V30 11344 O 1068.42 -0.829995 -7.99604 0
M  V30 11345 H 1068.15 0.260486 -0.623797 0
M  V30 11346 H 1070.71 0.153024 -2.04829 0
M  V30 11347 H 1068.94 2.5631 -2.89555 0
M  V30 11348 H 1070.63 2.39321 -3.27842 0
M  V30 11349 H 1071.39 0.453151 -4.82878 0
M  V30 11350 H 1067.27 1.57456 -4.33276 0
M  V30 11351 H 1070.82 -0.685542 -6.94223 0
M  V30 11352 H 1066.71 0.44227 -6.43983 0
M  V30 11353 H 1067.48 -0.731013 -8.15229 0
M  V30 11354 N 1070.14 1.51827 0.422667 0
M  V30 11355 C 1071.07 1.77152 1.52117 0
M  V30 11356 C 1072.06 0.621895 1.58324 0
M  V30 11357 O 1073.24 0.866118 1.73816 0
M  V30 11358 C 1070.37 1.90991 2.90068 0
M  V30 11359 C 1069.32 3.06516 2.98717 0
M  V30 11360 C 1068.65 3.05559 4.38791 0
M  V30 11361 C 1069.95 4.46223 2.71445 0
M  V30 11362 H 1071.64 2.69135 1.31175 0
M  V30 11363 H 1069.19 1.29507 0.629607 0
M  V30 11364 H 1071.14 2.07291 3.6689 0
M  V30 11365 H 1069.87 0.956688 3.12274 0
M  V30 11366 H 1068.53 2.89945 2.24338 0
M  V30 11367 H 1068.17 2.07985 4.57986 0
M  V30 11368 H 1067.87 3.83144 4.45505 0
M  V30 11369 H 1069.4 3.23971 5.17566 0
M  V30 11370 H 1070.81 4.63069 3.37994 0
M  V30 11371 H 1069.21 5.25623 2.89552 0
M  V30 11372 H 1070.28 4.5525 1.6696 0
M  V30 11373 N 1071.62 -0.679052 1.4222 0
M  V30 11374 C 1072.53 -1.82221 1.47759 0
M  V30 11375 C 1073.55 -1.70092 0.3667 0
M  V30 11376 O 1074.72 -1.91718 0.616957 0
M  V30 11377 C 1071.79 -3.18332 1.37351 0
M  V30 11378 C 1070.85 -3.42449 2.58896 0
M  V30 11379 C 1070.08 -4.72067 2.48976 0
M  V30 11380 O 1070.31 -5.49683 1.5233 0
M  V30 11381 O 1069.24 -4.97333 3.39033 0
M  V30 11382 H 1073.07 -1.80504 2.44238 0
M  V30 11383 H 1070.65 -0.834251 1.23938 0
M  V30 11384 H 1072.53 -3.99563 1.33893 0
M  V30 11385 H 1071.21 -3.20696 0.439965 0
M  V30 11386 H 1070.12 -2.61083 2.6793 0
M  V30 11387 H 1071.45 -3.44912 3.51136 0
M  V30 11388 N 1073.1 -1.28322 -0.914942 0
M  V30 11389 C 1074.05 -1.12003 -2.03858 0
M  V30 11390 C 1075.04 -0.0396287 -1.69354 0
M  V30 11391 O 1076.25 -0.198309 -1.78904 0
M  V30 11392 H 1072.62 -0.34552 -0.667922 0
M  V30 11393 H 1074.59 -2.07168 -2.14765 0
M  V30 11394 C 1073.34 -0.797402 -3.38433 0
M  V30 11395 H 1072.67 -1.62071 -3.65476 0
M  V30 11396 H 1074.11 -0.723165 -4.17787 0
M  V30 11397 C 1072.57 0.498807 -3.33187 0
M  V30 11398 O 1073.1 1.52946 -3.71444 0
M  V30 11399 N 1071.3 0.499101 -2.86282 0
M  V30 11400 H 1070.85 -0.340056 -2.55346 0
M  V30 11401 H 1070.81 1.36641 -2.83155 0
M  V30 11402 N 1074.58 1.12322 -1.10551 0
M  V30 11403 C 1075.53 2.18087 -0.755424 0
M  V30 11404 C 1076.5 1.6391 0.268805 0
M  V30 11405 O 1077.68 1.90227 0.147813 0
M  V30 11406 C 1074.82 3.4455 -0.194713 0
M  V30 11407 C 1073.93 4.12775 -1.27439 0
M  V30 11408 C 1073.07 5.26891 -0.675194 0
M  V30 11409 C 1072.11 5.86985 -1.73536 0
M  V30 11410 N 1071.24 6.92512 -1.15635 0
M  V30 11411 H 1076.08 2.47379 -1.66155 0
M  V30 11412 H 1073.62 1.21452 -0.829924 0
M  V30 11413 H 1075.58 4.16936 0.148275 0
M  V30 11414 H 1074.21 3.15671 0.674638 0
M  V30 11415 H 1073.26 3.38556 -1.73448 0
M  V30 11416 H 1074.57 4.53506 -2.07687 0
M  V30 11417 H 1073.73 6.06046 -0.281723 0
M  V30 11418 H 1072.47 4.87442 0.158708 0
M  V30 11419 H 1071.47 5.06517 -2.13825 0
M  V30 11420 H 1072.7 6.28505 -2.57213 0
M  V30 11421 H 1070.64 6.55098 -0.343928 0
M  V30 11422 H 1070.56 7.31848 -1.89565 0
M  V30 11423 H 1071.83 7.75492 -0.789463 0
M  V30 11424 N 1076.06 0.894434 1.2976 0
M  V30 11425 C 1077 0.357958 2.29829 0
M  V30 11426 C 1078 -0.540093 1.6056 0
M  V30 11427 O 1079.2 -0.423478 1.74948 0
M  V30 11428 H 1075.58 0.0971183 0.745702 0
M  V30 11429 H 1077.55 1.21542 2.72526 0
M  V30 11430 C 1076.3 -0.404126 3.45343 0
M  V30 11431 H 1075.62 0.277671 3.98835 0
M  V30 11432 H 1077.06 -0.744446 4.17413 0
M  V30 11433 C 1075.52 -1.6048 2.96222 0
M  V30 11434 O 1076.05 -2.70414 2.97051 0
M  V30 11435 N 1074.26 -1.44517 2.52117 0
M  V30 11436 H 1073.8 -0.55082 2.51642 0
M  V30 11437 H 1073.76 -2.24987 2.1961 0
M  V30 11438 N 1077.53 -1.43282 0.656365 0
M  V30 11439 C 1078.46 -2.33492 -0.0196962 0
M  V30 11440 C 1079.45 -1.49647 -0.80868 0
M  V30 11441 O 1080.63 -1.78303 -0.769529 0
M  V30 11442 C 1077.76 -3.33052 -0.984574 0
M  V30 11443 C 1076.71 -4.26908 -0.305483 0
M  V30 11444 C 1076.04 -5.16531 -1.38202 0
M  V30 11445 C 1077.34 -5.16073 0.804081 0
M  V30 11446 H 1079.03 -2.90272 0.733661 0
M  V30 11447 H 1076.58 -1.39574 0.354259 0
M  V30 11448 H 1078.53 -3.9506 -1.46647 0
M  V30 11449 H 1077.26 -2.74535 -1.76913 0
M  V30 11450 H 1075.92 -3.66268 0.155995 0
M  V30 11451 H 1075.56 -4.54351 -2.1581 0
M  V30 11452 H 1075.26 -5.80148 -0.932878 0
M  V30 11453 H 1076.79 -5.81414 -1.86522 0
M  V30 11454 H 1078.2 -5.71873 0.404212 0
M  V30 11455 H 1076.6 -5.88427 1.17789 0
M  V30 11456 H 1077.67 -4.55574 1.66073 0
M  V30 11457 N 1079.01 -0.398486 -1.52479 0
M  V30 11458 C 1080.26 0.181019 -2.0199 0
M  V30 11459 C 1080.59 1.45691 -1.28405 0
M  V30 11460 O 1079.87 1.90607 -0.387207 0
M  V30 11461 C 1080.15 0.439587 -3.57407 0
M  V30 11462 C 1080 -0.85223 -4.41653 0
M  V30 11463 C 1081.32 1.2263 -4.2267 0
M  V30 11464 H 1078.44 0.0643164 -0.734188 0
M  V30 11465 H 1081.08 -0.52986 -1.82462 0
M  V30 11466 H 1079.23 1.04516 -3.74177 0
M  V30 11467 H 1080.91 -1.48879 -4.36615 0
M  V30 11468 H 1079.15 -1.46555 -4.08294 0
M  V30 11469 H 1079.82 -0.625839 -5.48441 0
M  V30 11470 H 1082.3 0.713722 -4.09933 0
M  V30 11471 H 1081.17 1.37596 -5.31374 0
M  V30 11472 H 1081.43 2.24403 -3.80914 0
M  V30 11473 N 1080.49 1.57075 -0.12858 0
M  V30 11474 C 1081.44 2.12379 0.829418 0
M  V30 11475 C 1082.43 1.04694 1.2218 0
M  V30 11476 O 1083.62 1.30909 1.1913 0
M  V30 11477 C 1080.75 2.73436 2.07575 0
M  V30 11478 C 1079.83 3.88217 1.7073 0
M  V30 11479 N 1080.22 4.94864 1.04609 0
M  V30 11480 C 1078.52 3.9858 2.00125 0
M  V30 11481 C 1079.22 5.7514 0.871137 0
M  V30 11482 N 1078.2 5.25284 1.39918 0
M  V30 11483 H 1082 2.92209 0.314816 0
M  V30 11484 H 1079.51 1.62233 0.0735788 0
M  V30 11485 H 1081.51 3.11406 2.77185 0
M  V30 11486 H 1080.17 1.95073 2.5957 0
M  V30 11487 H 1081.18 5.13025 0.708961 0
M  V30 11488 H 1077.86 3.3127 2.541 0
M  V30 11489 H 1079.25 6.7098 0.351395 0
M  V30 11490 N 1081.97 -0.145205 1.5693 0
M  V30 11491 C 1083.22 -0.855822 1.83085 0
M  V30 11492 C 1083.54 -1.81625 0.709747 0
M  V30 11493 O 1082.81 -1.94052 -0.268456 0
M  V30 11494 H 1081.39 -0.319032 0.675446 0
M  V30 11495 H 1084.05 -0.138781 1.94405 0
M  V30 11496 H 1083.15 -1.41698 2.78079 0
M  V30 11497 N 1083.45 -1.52049 -0.414609 0
M  V30 11498 C 1084.4 -1.75603 -1.52533 0
M  V30 11499 C 1085.39 -0.622965 -1.57529 0
M  V30 11500 O 1086.6 -0.804886 -1.61002 0
M  V30 11501 H 1082.97 -0.555222 -0.507181 0
M  V30 11502 H 1084.94 -2.68666 -1.2985 0
M  V30 11503 C 1083.69 -1.9188 -2.89961 0
M  V30 11504 H 1083.01 -2.78483 -2.86857 0
M  V30 11505 H 1084.45 -2.12363 -3.66985 0
M  V30 11506 C 1082.91 -0.684453 -3.29874 0
M  V30 11507 O 1083.44 0.150256 -4.01419 0
M  V30 11508 N 1081.65 -0.521936 -2.85874 0
M  V30 11509 H 1081.2 -1.20229 -2.27822 0
M  V30 11510 H 1081.15 0.302655 -3.1294 0
M  V30 11511 N 1084.93 0.6715 -1.42579 0
M  V30 11512 C 1086.17 1.43366 -1.43436 0
M  V30 11513 C 1086.5 1.94131 -0.0517339 0
M  V30 11514 O 1085.78 1.71121 0.924548 0
M  V30 11515 C 1086.06 2.62832 -2.46154 0
M  V30 11516 C 1085.92 2.17677 -3.9362 0
M  V30 11517 C 1087.23 3.65049 -2.4582 0
M  V30 11518 H 1084.35 0.519967 -0.522306 0
M  V30 11519 H 1087 0.762849 -1.74013 0
M  V30 11520 H 1085.15 3.20062 -2.2021 0
M  V30 11521 H 1086.82 1.65588 -4.30556 0
M  V30 11522 H 1085.06 1.49219 -4.07328 0
M  V30 11523 H 1085.73 3.03503 -4.61075 0
M  V30 11524 H 1088.21 3.17541 -2.68899 0
M  V30 11525 H 1087.08 4.46213 -3.19664 0
M  V30 11526 H 1087.34 4.16401 -1.48536 0
M  V30 11527 N 1086.4 1.28806 0.908124 0
M  V30 11528 C 1087.64 1.17546 1.67219 0
M  V30 11529 C 1088.01 -0.270396 1.90086 0
M  V30 11530 O 1089.21 -0.505808 2.63998 0
M  V30 11531 C 1087.48 1.95774 2.99011 0
M  V30 11532 S 1089.04 2.00953 3.90081 0
M  V30 11533 H 1085.86 0.419283 0.574215 0
M  V30 11534 H 1088.46 1.6298 1.07971 0
M  V30 11535 H 1087.16 2.99978 2.80074 0
M  V30 11536 H 1086.69 1.50911 3.63303 0
M  V30 11537 H 1088.71 1.1201 4.83392 0
M  V30 11538 N 1087.88 -1.11734 1.11145 0
M  V30 11539 C 1089.13 -1.83043 0.856717 0
M  V30 11540 C 1089.45 -1.84901 -0.619407 0
M  V30 11541 O 1088.72 -1.31738 -1.44989 0
M  V30 11542 H 1087.3 -0.677823 0.31395 0
M  V30 11543 H 1089.96 -1.35262 1.40322 0
M  V30 11544 H 1089.06 -2.87005 1.22616 0
M  V30 11545 N 1089.36 -0.901303 -1.29284 0
M  V30 11546 C 1090.78 -0.597634 -1.47988 0
M  V30 11547 C 1090.98 0.860434 -1.82205 0
M  V30 11548 O 1090.03 1.64049 -1.91948 0
M  V30 11549 C 1091.34 -1.52484 -2.5917 0
M  V30 11550 C 1092.89 -1.53021 -2.73045 0
M  V30 11551 C 1093.37 -2.44373 -3.87357 0
M  V30 11552 N 1094.86 -2.42429 -3.94693 0
M  V30 11553 C 1095.59 -3.09817 -4.82495 0
M  V30 11554 N 1095.09 -3.86489 -5.74976 0
M  V30 11555 N 1096.88 -2.98966 -4.76 0
M  V30 11556 H 1089.03 -1.84432 -1.0535 0
M  V30 11557 H 1091.3 -0.790367 -0.523473 0
M  V30 11558 H 1091 -2.56378 -2.40756 0
M  V30 11559 H 1090.88 -1.24657 -3.56006 0
M  V30 11560 H 1093.26 -0.498709 -2.90855 0
M  V30 11561 H 1093.34 -1.84886 -1.76779 0
M  V30 11562 H 1092.99 -3.47618 -3.70302 0
M  V30 11563 H 1092.92 -2.09817 -4.82995 0
M  V30 11564 H 1095.41 -1.86724 -3.28546 0
M  V30 11565 H 1095.72 -4.34959 -6.38773 0
M  V30 11566 H 1094.07 -3.90596 -5.74857 0
M  V30 11567 H 1097.26 -2.38581 -4.02737 0
M  V30 11568 H 1097.43 -3.51758 -5.44215 0
M  V30 11569 N 1090.84 1.42931 -0.663954 0
M  V30 11570 C 1091.79 2.32577 0.03287 0
M  V30 11571 C 1092.78 1.49217 0.801918 0
M  V30 11572 O 1093.99 1.65358 0.711106 0
M  V30 11573 H 1090.36 0.751424 0.0294198 0
M  V30 11574 H 1092.33 2.89059 -0.740763 0
M  V30 11575 C 1091.08 3.33661 0.978025 0
M  V30 11576 H 1090.4 3.97837 0.395681 0
M  V30 11577 H 1091.84 3.98997 1.43448 0
M  V30 11578 C 1090.3 2.65085 2.07922 0
M  V30 11579 O 1090.83 2.4745 3.16435 0
M  V30 11580 N 1089.04 2.24285 1.84783 0
M  V30 11581 H 1088.59 2.38827 0.965368 0
M  V30 11582 H 1088.54 1.78732 2.58655 0
M  V30 11583 N 1092.32 0.406567 1.52266 0
M  V30 11584 C 1093.56 -0.171391 2.00971 0
M  V30 11585 C 1093.88 -1.46443 1.29668 0
M  V30 11586 O 1095.08 -2.12348 1.69176 0
M  V30 11587 C 1093.54 -0.35599 3.58135 0
M  V30 11588 C 1093.15 0.924803 4.38351 0
M  V30 11589 C 1094.89 -0.889378 4.15079 0
M  V30 11590 C 1092.8 0.707534 5.87152 0
M  V30 11591 H 1091.73 -0.0678253 0.750943 0
M  V30 11592 H 1094.38 0.531619 1.7563 0
M  V30 11593 H 1092.76 -1.12127 3.79794 0
M  V30 11594 H 1093.94 1.69603 4.28452 0
M  V30 11595 H 1092.25 1.38442 3.92712 0
M  V30 11596 H 1094.85 -1.06792 5.23927 0
M  V30 11597 H 1095.19 -1.86334 3.7227 0
M  V30 11598 H 1095.72 -0.183224 3.97378 0
M  V30 11599 H 1092.46 1.65299 6.34316 0
M  V30 11600 H 1091.98 -0.024446 5.99795 0
M  V30 11601 H 1093.66 0.348721 6.4606 0
M  V30 11602 N 1093.79 -1.57004 0.136909 0
M  V30 11603 C 1094.72 -2.19262 -0.802902 0
M  V30 11604 C 1095.71 -1.13786 -1.26439 0
M  V30 11605 O 1096.89 -1.42091 -1.32377 0
M  V30 11606 C 1094.02 -2.80624 -2.04615 0
M  V30 11607 C 1092.97 -3.91839 -1.72181 0
M  V30 11608 C 1092.3 -4.4009 -3.03686 0
M  V30 11609 C 1093.6 -5.13095 -0.976249 0
M  V30 11610 H 1095.29 -2.98049 -0.28406 0
M  V30 11611 H 1092.84 -1.43364 -0.135189 0
M  V30 11612 H 1094.79 -3.22842 -2.70834 0
M  V30 11613 H 1093.52 -1.99153 -2.58855 0
M  V30 11614 H 1092.18 -3.50224 -1.08344 0
M  V30 11615 H 1091.82 -3.55454 -3.55896 0
M  V30 11616 H 1091.52 -5.15098 -2.82751 0
M  V30 11617 H 1093.05 -4.84971 -3.70993 0
M  V30 11618 H 1094.46 -5.5222 -1.54033 0
M  V30 11619 H 1092.86 -5.93801 -0.867214 0
M  V30 11620 H 1093.93 -4.84888 0.0338488 0
M  V30 11621 N 1095.27 0.136881 -1.57004 0
M  V30 11622 C 1096.2 1.17026 -2.02057 0
M  V30 11623 C 1097.18 1.44223 -0.901866 0
M  V30 11624 O 1098.37 1.54971 -1.17037 0
M  V30 11625 C 1095.5 2.50095 -2.40977 0
M  V30 11626 C 1094.45 2.37398 -3.56127 0
M  V30 11627 C 1093.78 3.75268 -3.80891 0
M  V30 11628 C 1095.08 1.84952 -4.88457 0
M  V30 11629 H 1096.77 0.795601 -2.88636 0
M  V30 11630 H 1094.32 0.381266 -1.38861 0
M  V30 11631 H 1096.27 3.22621 -2.71097 0
M  V30 11632 H 1095 2.89416 -1.51348 0
M  V30 11633 H 1093.65 1.67322 -3.26188 0
M  V30 11634 H 1093.3 4.12043 -2.88496 0
M  V30 11635 H 1093 3.67631 -4.5839 0
M  V30 11636 H 1094.53 4.49327 -4.13446 0
M  V30 11637 H 1095.94 2.4728 -5.17229 0
M  V30 11638 H 1094.34 1.88181 -5.69832 0
M  V30 11639 H 1095.41 0.805848 -4.78157 0
M  V30 11640 N 1096.75 1.52266 0.40654 0
M  V30 11641 C 1097.71 1.75168 1.47814 0
M  V30 11642 C 1098.71 0.621575 1.48301 0
M  V30 11643 O 1099.9 0.889476 1.4978 0
M  V30 11644 C 1097.04 1.83642 2.87208 0
M  V30 11645 H 1098.23 2.70834 1.28798 0
M  V30 11646 H 1095.78 1.42722 0.637196 0
M  V30 11647 H 1096.52 0.898994 3.1159 0
M  V30 11648 H 1096.3 2.65801 2.88257 0
M  V30 11649 H 1097.79 2.03093 3.64888 0
M  V30 11650 N 1098.23 -0.663929 1.42933 0
M  V30 11651 C 1099.64 -0.978346 1.26097 0
M  V30 11652 C 1099.84 -2.00756 0.172968 0
M  V30 11653 O 1098.9 -2.48418 -0.452184 0
M  V30 11654 C 1100.21 -1.4728 2.62162 0
M  V30 11655 C 1101.76 -1.59001 2.69606 0
M  V30 11656 C 1102.24 -2.1184 4.06064 0
M  V30 11657 N 1103.73 -2.19158 4.08074 0
M  V30 11658 C 1104.46 -2.61141 5.10483 0
M  V30 11659 N 1103.96 -3.02498 6.23271 0
M  V30 11660 N 1105.75 -2.60986 4.97838 0
M  V30 11661 H 1097.9 0.0173096 2.12393 0
M  V30 11662 H 1100.17 -0.0548116 0.946414 0
M  V30 11663 H 1099.87 -0.791008 3.42689 0
M  V30 11664 H 1099.75 -2.4497 2.86827 0
M  V30 11665 H 1102.13 -2.26284 1.89418 0
M  V30 11666 H 1102.21 -0.597728 2.48718 0
M  V30 11667 H 1101.86 -1.45162 4.86714 0
M  V30 11668 H 1101.79 -3.1188 4.2431 0
M  V30 11669 H 1104.28 -1.90013 3.26655 0
M  V30 11670 H 1104.59 -3.33251 6.97254 0
M  V30 11671 H 1102.94 -3.00328 6.2676 0
M  V30 11672 H 1106.13 -2.28046 4.08794 0
M  V30 11673 H 1106.3 -2.93384 5.7778 0
M  V30 11674 N 1099.71 -1.29285 -0.901281 0
M  V30 11675 C 1100.64 -1.16832 -2.0217 0
M  V30 11676 C 1101.62 -0.0629265 -1.69984 0
M  V30 11677 O 1102.8 -0.242123 -1.92685 0
M  V30 11678 C 1099.93 -0.842406 -3.36929 0
M  V30 11679 C 1098.89 -1.90394 -3.8332 0
M  V30 11680 C 1098.21 -1.43138 -5.15185 0
M  V30 11681 C 1099.51 -3.31254 -4.03817 0
M  V30 11682 H 1101.21 -2.10562 -2.12847 0
M  V30 11683 H 1098.75 -1.01375 -1.0227 0
M  V30 11684 H 1100.71 -0.741999 -4.14816 0
M  V30 11685 H 1099.43 0.130598 -3.26339 0
M  V30 11686 H 1098.09 -1.99371 -3.07647 0
M  V30 11687 H 1097.74 -0.447091 -5.01009 0
M  V30 11688 H 1097.44 -2.14129 -5.47195 0
M  V30 11689 H 1098.96 -1.34444 -5.95615 0
M  V30 11690 H 1100.37 -3.25129 -4.72191 0
M  V30 11691 H 1098.77 -4.00189 -4.47178 0
M  V30 11692 H 1099.84 -3.74349 -3.08206 0
M  V30 11693 N 1101.18 1.11143 -1.11736 0
M  V30 11694 C 1102.43 1.82586 -0.866412 0
M  V30 11695 C 1102.75 1.85227 0.609593 0
M  V30 11696 O 1102.02 1.32505 1.44288 0
M  V30 11697 H 1100.6 0.676149 -0.31754 0
M  V30 11698 H 1103.27 1.34516 -1.41037 0
M  V30 11699 H 1102.36 2.8635 -1.24136 0
M  V30 11700 N 1102.66 0.908147 1.28804 0
M  V30 11701 C 1103.59 0.409106 2.29888 0
M  V30 11702 C 1104.57 -0.520338 1.61946 0
M  V30 11703 O 1105.76 -0.429268 1.89396 0
M  V30 11704 C 1102.89 -0.35669 3.45463 0
M  V30 11705 C 1101.84 0.4831 4.25265 0
M  V30 11706 C 1101.17 -0.4107 5.3312 0
M  V30 11707 C 1102.47 1.73744 4.92555 0
M  V30 11708 H 1104.16 1.25386 2.7188 0
M  V30 11709 H 1101.71 0.604368 1.30703 0
M  V30 11710 H 1103.66 -0.71661 4.15262 0
M  V30 11711 H 1102.39 -1.2353 3.02337 0
M  V30 11712 H 1101.04 0.825464 3.57186 0
M  V30 11713 H 1100.69 -1.28769 4.86238 0
M  V30 11714 H 1100.39 0.14756 5.87415 0
M  V30 11715 H 1101.92 -0.766626 6.05768 0
M  V30 11716 H 1103.33 1.44676 5.54745 0
M  V30 11717 H 1101.73 2.23767 5.5682 0
M  V30 11718 H 1102.8 2.46853 4.17363 0
M  V30 11719 N 1104.14 -1.42577 0.671525 0
M  V30 11720 C 1105.1 -2.292 0.000392482 0
M  V30 11721 C 1106.1 -1.43158 -0.732294 0
M  V30 11722 O 1107.29 -1.64583 -0.570789 0
M  V30 11723 C 1104.43 -3.25591 -1.01013 0
M  V30 11724 H 1105.62 -2.90037 0.762783 0
M  V30 11725 H 1103.17 -1.50162 0.433703 0
M  V30 11726 H 1103.91 -2.69685 -1.80112 0
M  V30 11727 H 1103.69 -3.89049 -0.488183 0
M  V30 11728 H 1105.18 -3.90561 -1.47824 0
M  V30 11729 N 1105.62 -0.414636 -1.52048 0
M  V30 11730 C 1106.53 0.414861 -2.30903 0
M  V30 11731 C 1107.54 1.04855 -1.38858 0
M  V30 11732 O 1108.72 1.04886 -1.71933 0
M  V30 11733 C 1105.79 1.51356 -3.11917 0
M  V30 11734 C 1104.85 0.902359 -4.19709 0
M  V30 11735 C 1104.08 1.9487 -4.96852 0
M  V30 11736 O 1104.3 3.16766 -4.74358 0
M  V30 11737 O 1103.24 1.55186 -5.8155 0
M  V30 11738 H 1107.06 -0.228251 -3.02841 0
M  V30 11739 H 1104.65 -0.177704 -1.48339 0
M  V30 11740 H 1106.53 2.15127 -3.62351 0
M  V30 11741 H 1105.2 2.14117 -2.42767 0
M  V30 11742 H 1104.11 0.22721 -3.73409 0
M  V30 11743 H 1105.44 0.318587 -4.91168 0
M  V30 11744 N 1107.1 1.56929 -0.145233 0
M  V30 11745 C 1108.34 1.95681 0.50532 0
M  V30 11746 C 1108.67 1.03098 1.65516 0
M  V30 11747 O 1107.94 0.0921961 1.95683 0
M  V30 11748 H 1106.52 0.72252 0.189668 0
M  V30 11749 H 1109.18 1.93651 -0.220318 0
M  V30 11750 H 1108.27 2.99359 0.882631 0
M  V30 11751 N 1108.58 -0.128553 1.57075 0
M  V30 11752 C 1109.8 -0.85245 1.88523 0
M  V30 11753 C 1110.22 -1.73886 0.735459 0
M  V30 11754 O 1109.58 -1.80114 -0.294113 0
M  V30 11755 C 1109.63 -1.69384 3.19361 0
M  V30 11756 O 1109.35 -0.84313 4.2991 0
M  V30 11757 C 1110.85 -2.52373 3.64449 0
M  V30 11758 H 1108.07 -0.245556 0.624454 0
M  V30 11759 H 1110.61 -0.115807 2.04172 0
M  V30 11760 H 1108.77 -2.38335 3.0541 0
M  V30 11761 H 1109.18 -1.42255 5.0484 0
M  V30 11762 H 1110.66 -3.06955 4.58784 0
M  V30 11763 H 1111.13 -3.29283 2.90636 0
M  V30 11764 H 1111.74 -1.88681 3.81155 0
M  V30 11765 N 1110.05 -1.5248 -0.398459 0
M  V30 11766 C 1111.28 -1.71221 -1.17039 0
M  V30 11767 C 1111.7 -0.425515 -1.83224 0
M  V30 11768 O 1111.06 0.617938 -1.70444 0
M  V30 11769 C 1111.11 -2.8562 -2.20121 0
M  V30 11770 O 1110.21 -2.51934 -3.26501 0
M  V30 11771 H 1109.55 -0.569654 -0.34116 0
M  V30 11772 H 1112.08 -1.99231 -0.465652 0
M  V30 11773 H 1112.09 -3.10842 -2.64275 0
M  V30 11774 H 1110.77 -3.78969 -1.71334 0
M  V30 11775 H 1109.35 -2.3742 -2.87552 0
M  V30 11776 N 1111.53 0.65634 -1.43283 0
M  V30 11777 C 1112.94 1.23744 -1.39801 0
M  V30 11778 C 1113.29 1.95942 -0.100507 0
M  V30 11779 O 1112.42 2.01063 0.800161 0
M  V30 11780 C 1113.01 2.25062 -2.53244 0
M  V30 11781 C 1111.57 2.78657 -2.53036 0
M  V30 11782 C 1110.72 1.53251 -2.31105 0
M  V30 11783 H 1113.67 0.448553 -1.52229 0
M  V30 11784 H 1113.69 3.07174 -2.24553 0
M  V30 11785 H 1113.2 1.72487 -3.47664 0
M  V30 11786 H 1111.3 3.35304 -1.62487 0
M  V30 11787 H 1111.42 3.26414 -3.507 0
M  V30 11788 H 1109.78 1.80487 -1.79713 0
M  V30 11789 H 1110.56 1.02615 -3.27605 0
M  V30 11790 N 1113.01 1.29761 0.894412 0
M  V30 11791 C 1114.26 1.18039 1.64539 0
M  V30 11792 C 1114.58 -0.26697 1.92659 0
M  V30 11793 O 1113.84 -1.20865 1.53916 0
M  V30 11794 C 1114.14 1.94458 2.99868 0
M  V30 11795 C 1113.8 3.44143 2.91336 0
M  V30 11796 C 1112.47 3.84963 2.88716 0
M  V30 11797 C 1114.82 4.39503 2.80154 0
M  V30 11798 C 1112.15 5.19451 2.72741 0
M  V30 11799 C 1114.5 5.74088 2.65718 0
M  V30 11800 C 1113.16 6.14159 2.61467 0
M  V30 11801 H 1112.43 0.431936 0.60209 0
M  V30 11802 H 1115.08 1.60758 1.04063 0
M  V30 11803 H 1113.38 1.44346 3.64241 0
M  V30 11804 H 1115.08 1.82788 3.56917 0
M  V30 11805 H 1111.67 3.11699 2.9418 0
M  V30 11806 H 1115.86 4.08915 2.81251 0
M  V30 11807 H 1111.11 5.49602 2.67858 0
M  V30 11808 H 1115.29 6.47625 2.56038 0
M  V30 11809 H 1112.91 7.18317 2.48847 0
M  V30 11810 N 1114.49 -1.10549 1.12324 0
M  V30 11811 C 1115.74 -1.81851 0.872531 0
M  V30 11812 C 1116.05 -1.86058 -0.603468 0
M  V30 11813 O 1117.26 -2.53553 -0.970736 0
M  V30 11814 C 1115.71 -3.26631 1.51131 0
M  V30 11815 C 1115.32 -3.30725 3.02201 0
M  V30 11816 C 1117.06 -4.02768 1.34082 0
M  V30 11817 C 1114.97 -4.69957 3.59018 0
M  V30 11818 H 1113.9 -0.681422 0.322769 0
M  V30 11819 H 1116.55 -1.24332 1.34959 0
M  V30 11820 H 1114.93 -3.8414 0.961913 0
M  V30 11821 H 1116.11 -2.83046 3.63623 0
M  V30 11822 H 1114.42 -2.68072 3.18632 0
M  V30 11823 H 1117.02 -5.05612 1.73955 0
M  V30 11824 H 1117.36 -4.15328 0.284369 0
M  V30 11825 H 1117.9 -3.51671 1.85937 0
M  V30 11826 H 1114.63 -4.62597 4.64418 0
M  V30 11827 H 1114.15 -5.18008 3.02371 0
M  V30 11828 H 1115.83 -5.38925 3.58007 0
M  V30 11829 N 1115.97 -0.914965 -1.28321 0
M  V30 11830 C 1116.91 -0.402792 -2.27258 0
M  V30 11831 C 1117.88 0.523412 -1.57638 0
M  V30 11832 O 1119.07 0.445344 -1.8553 0
M  V30 11833 C 1116.21 0.349956 -3.43321 0
M  V30 11834 C 1115.32 -0.608892 -4.27687 0
M  V30 11835 C 1114.46 0.162425 -5.30952 0
M  V30 11836 C 1113.49 -0.789959 -6.06981 0
M  V30 11837 N 1112.63 -0.0520826 -7.02081 0
M  V30 11838 H 1117.47 -1.25153 -2.70446 0
M  V30 11839 H 1115.01 -0.628444 -1.33 0
M  V30 11840 H 1116.97 0.802589 -4.09407 0
M  V30 11841 H 1115.6 1.16303 -3.01121 0
M  V30 11842 H 1114.65 -1.18005 -3.61634 0
M  V30 11843 H 1115.96 -1.33727 -4.8054 0
M  V30 11844 H 1115.11 0.675563 -6.02927 0
M  V30 11845 H 1113.85 0.923851 -4.7887 0
M  V30 11846 H 1112.86 -1.31446 -5.33856 0
M  V30 11847 H 1114.08 -1.55096 -6.61152 0
M  V30 11848 H 1112.03 0.691331 -6.52347 0
M  V30 11849 H 1111.95 -0.720267 -7.52561 0
M  V30 11850 H 1113.21 0.44082 -7.78253 0
M  V30 11851 N 1117.44 1.42219 -0.679077 0
M  V30 11852 C 1118.37 2.33493 -0.0174528 0
M  V30 11853 C 1119.35 1.50915 0.78477 0
M  V30 11854 O 1120.54 1.79504 0.741065 0
M  V30 11855 C 1117.67 3.34576 0.931463 0
M  V30 11856 C 1116.62 4.2734 0.237527 0
M  V30 11857 C 1115.95 5.18664 1.29967 0
M  V30 11858 C 1117.25 5.14729 -0.886082 0
M  V30 11859 H 1118.94 2.89068 -0.779748 0
M  V30 11860 H 1116.49 1.38993 -0.376419 0
M  V30 11861 H 1118.44 3.97343 1.40343 0
M  V30 11862 H 1117.17 2.77315 1.72523 0
M  V30 11863 H 1115.83 3.65973 -0.214245 0
M  V30 11864 H 1115.47 4.57727 2.08554 0
M  V30 11865 H 1115.17 5.81558 0.840463 0
M  V30 11866 H 1116.7 5.84308 1.77249 0
M  V30 11867 H 1118.11 5.71158 -0.495141 0
M  V30 11868 H 1116.51 5.86478 -1.27135 0
M  V30 11869 H 1117.58 4.52874 -1.733 0
M  V30 11870 N 1118.92 0.422693 1.51826 0
M  V30 11871 C 1120.15 -0.15017 2.06856 0
M  V30 11872 C 1120.57 -1.36946 1.28948 0
M  V30 11873 O 1119.93 -1.78393 0.32338 0
M  V30 11874 C 1119.98 -0.465563 3.57582 0
M  V30 11875 O 1119.08 -1.55442 3.81984 0
M  V30 11876 H 1118.42 -0.00827931 0.663948 0
M  V30 11877 H 1120.95 0.599806 1.95611 0
M  V30 11878 H 1120.96 -0.720279 4.01592 0
M  V30 11879 H 1119.64 0.425679 4.13716 0
M  V30 11880 H 1118.21 -1.29081 3.49846 0
M  V30 11881 N 1120.4 -1.5685 0.153553 0
M  V30 11882 C 1121.68 -1.8796 -0.541328 0
M  V30 11883 C 1122.06 -1.06059 -1.82523 0
M  V30 11884 O 1121.4 -0.149295 -2.28012 0
M  V30 11885 C 1121.61 -3.39697 -0.800442 0
M  V30 11886 C 1122.96 -4.09057 -1.13832 0
M  V30 11887 O 1123.99 -3.44913 -0.889578 0
M  V30 11888 O 1122.85 -5.22347 -1.60673 0
M  V30 11889 H 1119.94 -0.779268 -0.276895 0
M  V30 11890 H 1122.49 -1.68626 0.190657 0
M  V30 11891 H 1121.26 -3.91151 0.107935 0
M  V30 11892 H 1120.88 -3.64582 -1.58638 0
M  V30 11893 N 1121.88 0.120221 -1.57141 0
M  V30 11894 C 1123.29 0.677497 -1.73974 0
M  V30 11895 C 1123.64 1.80371 -0.772055 0
M  V30 11896 O 1122.76 2.16329 0.0553062 0
M  V30 11897 C 1123.36 1.23575 -3.1546 0
M  V30 11898 C 1121.92 1.73933 -3.33803 0
M  V30 11899 C 1121.07 0.638542 -2.69848 0
M  V30 11900 H 1124.02 -0.105685 -1.58348 0
M  V30 11901 H 1124.04 2.10542 -3.16942 0
M  V30 11902 H 1123.55 0.415851 -3.85866 0
M  V30 11903 H 1121.65 2.58404 -2.68437 0
M  V30 11904 H 1121.76 1.84961 -4.41957 0
M  V30 11905 H 1120.13 1.07185 -2.31049 0
M  V30 11906 H 1120.91 -0.170356 -3.42877 0
M  V30 11907 N 1123.36 1.52689 0.390367 0
M  V30 11908 C 1124.6 1.67335 1.13329 0
M  V30 11909 C 1124.93 0.415068 1.90531 0
M  V30 11910 O 1124.2 -0.570504 1.87409 0
M  V30 11911 H 1122.78 0.616821 0.421356 0
M  V30 11912 H 1125.44 1.89799 0.443 0
M  V30 11913 H 1124.53 2.52314 1.83696 0
M  V30 11914 N 1124.83 -0.648732 1.43629 0
M  V30 11915 C 1126.08 -1.41066 1.45699 0
M  V30 11916 C 1126.41 -1.94024 0.082612 0
M  V30 11917 O 1125.69 -1.7257 -0.897207 0
M  V30 11918 C 1125.97 -2.58882 2.50304 0
M  V30 11919 C 1125.82 -2.11387 3.97033 0
M  V30 11920 C 1127.14 -3.61092 2.51597 0
M  V30 11921 H 1124.26 -0.511591 0.530512 0
M  V30 11922 H 1126.9 -0.735069 1.75205 0
M  V30 11923 H 1125.05 -3.16518 2.25274 0
M  V30 11924 H 1126.73 -1.58718 4.33136 0
M  V30 11925 H 1124.97 -1.4272 4.0965 0
M  V30 11926 H 1125.64 -2.96129 4.65845 0
M  V30 11927 H 1128.12 -3.13223 2.73917 0
M  V30 11928 H 1126.99 -4.41071 3.26722 0
M  V30 11929 H 1127.25 -4.13985 1.55141 0
M  V30 11930 N 1126.31 -1.30234 -0.887518 0
M  V30 11931 C 1127.56 -1.18675 -1.63587 0
M  V30 11932 C 1127.88 0.259342 -1.93268 0
M  V30 11933 O 1127.15 1.17523 -1.56733 0
M  V30 11934 H 1125.73 -0.436224 -0.606397 0
M  V30 11935 H 1128.39 -1.63326 -1.06351 0
M  V30 11936 H 1127.49 -1.74575 -2.58708 0
M  V30 11937 N 1127.79 1.09952 -1.12909 0
M  V30 11938 C 1128.72 2.18477 -0.824014 0
M  V30 11939 C 1129.7 1.68744 0.214324 0
M  V30 11940 O 1130.89 1.94057 0.0744281 0
M  V30 11941 C 1128.02 3.46143 -0.283308 0
M  V30 11942 C 1126.97 4.09178 -1.25528 0
M  V30 11943 C 1126.3 5.31604 -0.574574 0
M  V30 11944 C 1127.6 4.52308 -2.6118 0
M  V30 11945 H 1129.29 2.44254 -1.73148 0
M  V30 11946 H 1126.84 1.17394 -0.833952 0
M  V30 11947 H 1128.79 4.21361 -0.057583 0
M  V30 11948 H 1127.51 3.19872 0.659525 0
M  V30 11949 H 1126.17 3.35973 -1.4669 0
M  V30 11950 H 1125.82 5.01611 0.37356 0
M  V30 11951 H 1125.52 5.74732 -1.22299 0
M  V30 11952 H 1127.04 6.0955 -0.358004 0
M  V30 11953 H 1128.46 5.18776 -2.44017 0
M  V30 11954 H 1126.86 5.06302 -3.22147 0
M  V30 11955 H 1127.93 3.64977 -3.19249 0
M  V30 11956 N 1129.27 0.921757 1.27833 0
M  V30 11957 C 1130.52 0.557974 1.94245 0
M  V30 11958 C 1130.84 -0.90268 1.72849 0
M  V30 11959 O 1130.11 -1.63915 1.07279 0
M  V30 11960 H 1128.69 0.203364 0.718785 0
M  V30 11961 H 1131.35 1.17286 1.5566 0
M  V30 11962 H 1130.45 0.759202 3.02725 0
M  V30 11963 N 1130.75 -1.41857 0.686609 0
M  V30 11964 C 1131.71 -2.29187 0.0247022 0
M  V30 11965 C 1132.71 -1.43926 -0.717069 0
M  V30 11966 O 1133.9 -1.65179 -0.5533 0
M  V30 11967 C 1131.03 -3.26644 -0.975537 0
M  V30 11968 H 1132.22 -2.89212 0.793503 0
M  V30 11969 H 1129.78 -1.49694 0.449605 0
M  V30 11970 H 1130.51 -2.7158 -1.77242 0
M  V30 11971 H 1130.3 -3.89545 -0.446892 0
M  V30 11972 H 1131.79 -3.92107 -1.43673 0
M  V30 11973 N 1132.22 -0.430739 -1.51599 0
M  V30 11974 C 1133.15 0.374695 -2.30474 0
M  V30 11975 C 1134.14 1.02694 -1.35602 0
M  V30 11976 O 1135.32 1.03184 -1.6452 0
M  V30 11977 C 1132.45 1.47981 -3.14196 0
M  V30 11978 C 1131.4 0.951415 -4.17291 0
M  V30 11979 C 1130.73 2.15177 -4.89492 0
M  V30 11980 C 1132.03 -0.00957951 -5.22299 0
M  V30 11981 H 1133.72 -0.283508 -2.98055 0
M  V30 11982 H 1131.27 -0.13779 -1.43339 0
M  V30 11983 H 1133.22 2.05043 -3.68151 0
M  V30 11984 H 1131.95 2.16621 -2.44424 0
M  V30 11985 H 1130.61 0.403052 -3.64378 0
M  V30 11986 H 1130.25 2.82421 -4.1623 0
M  V30 11987 H 1129.95 1.80464 -5.59202 0
M  V30 11988 H 1131.48 2.72806 -5.46269 0
M  V30 11989 H 1132.89 0.470527 -5.71366 0
M  V30 11990 H 1131.29 -0.268959 -5.99497 0
M  V30 11991 H 1132.36 -0.948297 -4.75537 0
M  V30 11992 N 1133.7 1.56767 -0.161869 0
M  V30 11993 C 1134.93 2.01401 0.49523 0
M  V30 11994 C 1135.35 1.04133 1.56646 0
M  V30 11995 O 1134.71 0.0193747 1.8129 0
M  V30 11996 C 1134.76 3.44695 1.05913 0
M  V30 11997 O 1133.86 3.50475 2.1735 0
M  V30 11998 H 1133.2 0.65314 0.1196 0
M  V30 11999 H 1135.73 2.02903 -0.26298 0
M  V30 12000 H 1135.74 3.83805 1.3841 0
M  V30 12001 H 1134.42 4.14991 0.274749 0
M  V30 12002 H 1133 3.23218 1.85969 0
M  V30 12003 N 1135.18 -0.111886 1.57202 0
M  V30 12004 C 1136.6 -0.465629 1.52657 0
M  V30 12005 C 1136.8 -1.81463 0.875989 0
M  V30 12006 O 1135.85 -2.4825 0.461345 0
M  V30 12007 C 1137.17 -0.443571 2.9741 0
M  V30 12008 C 1138.71 -0.52662 3.08538 0
M  V30 12009 C 1139.19 -0.53488 4.54866 0
M  V30 12010 N 1140.68 -0.596117 4.59348 0
M  V30 12011 C 1141.41 -0.624073 5.69994 0
M  V30 12012 N 1140.91 -0.609245 6.90116 0
M  V30 12013 N 1142.7 -0.667619 5.58121 0
M  V30 12014 H 1134.85 0.771925 1.97876 0
M  V30 12015 H 1137.12 0.285534 0.903977 0
M  V30 12016 H 1136.82 0.480138 3.48407 0
M  V30 12017 H 1136.7 -1.26876 3.55221 0
M  V30 12018 H 1139.08 -1.44075 2.57539 0
M  V30 12019 H 1139.17 0.326396 2.53709 0
M  V30 12020 H 1138.81 0.375233 5.06512 0
M  V30 12021 H 1138.74 -1.40488 5.07514 0
M  V30 12022 H 1141.23 -0.613452 3.72888 0
M  V30 12023 H 1141.54 -0.633396 7.702 0
M  V30 12024 H 1139.89 -0.576557 6.92604 0
M  V30 12025 H 1143.08 -0.676616 4.63184 0
M  V30 12026 H 1143.25 -0.685938 6.44359 0
M  V30 12027 N 1136.66 -1.52894 -0.382264 0
M  V30 12028 C 1137.57 -1.81084 -1.4915 0
M  V30 12029 C 1138.58 -0.698045 -1.59384 0
M  V30 12030 O 1139.76 -0.98635 -1.75594 0
M  V30 12031 C 1136.83 -1.97987 -2.84608 0
M  V30 12032 C 1135.89 -3.219 -2.8404 0
M  V30 12033 C 1135.12 -3.37988 -4.13037 0
M  V30 12034 O 1135.34 -2.58733 -5.08344 0
M  V30 12035 O 1134.28 -4.31273 -4.19866 0
M  V30 12036 H 1138.1 -2.75289 -1.28257 0
M  V30 12037 H 1135.69 -1.38068 -0.57076 0
M  V30 12038 H 1137.57 -2.10773 -3.64901 0
M  V30 12039 H 1136.24 -1.06972 -3.05514 0
M  V30 12040 H 1135.15 -3.14551 -2.02505 0
M  V30 12041 H 1136.48 -4.12783 -2.68087 0
M  V30 12042 N 1138.14 0.641106 -1.43971 0
M  V30 12043 C 1139.05 1.78239 -1.52538 0
M  V30 12044 C 1140.06 1.6906 -0.411668 0
M  V30 12045 O 1141.24 1.90014 -0.66757 0
M  V30 12046 C 1138.3 3.14579 -1.45743 0
M  V30 12047 C 1137.37 3.35464 -2.67885 0
M  V30 12048 C 1136.6 4.65299 -2.61404 0
M  V30 12049 O 1136.82 5.45451 -1.66851 0
M  V30 12050 O 1135.76 4.8817 -3.521 0
M  V30 12051 H 1139.58 1.73965 -2.48937 0
M  V30 12052 H 1137.17 0.801098 -1.26106 0
M  V30 12053 H 1139.05 3.95873 -1.4444 0
M  V30 12054 H 1137.72 3.19417 -0.524837 0
M  V30 12055 H 1136.63 2.53888 -2.74758 0
M  V30 12056 H 1137.96 3.35481 -3.60157 0
M  V30 12057 N 1139.62 1.30703 0.880598 0
M  V30 12058 C 1141.03 1.09129 1.1646 0
M  V30 12059 C 1141.23 -0.145131 2.00977 0
M  V30 12060 O 1140.29 -0.837502 2.38206 0
M  V30 12061 C 1141.6 2.35717 1.86703 0
M  V30 12062 C 1143.15 2.41224 1.9945 0
M  V30 12063 C 1143.62 3.67665 2.73105 0
M  V30 12064 N 1145.11 3.68498 2.80648 0
M  V30 12065 C 1145.85 4.63024 3.38225 0
M  V30 12066 N 1145.35 5.67898 3.96817 0
M  V30 12067 N 1147.14 4.50561 3.36082 0
M  V30 12068 H 1139.29 2.10019 0.317164 0
M  V30 12069 H 1141.55 0.925994 0.203072 0
M  V30 12070 H 1141.26 3.2597 1.32046 0
M  V30 12071 H 1141.13 2.447 2.87057 0
M  V30 12072 H 1143.52 1.51446 2.53275 0
M  V30 12073 H 1143.6 2.36212 0.981704 0
M  V30 12074 H 1143.24 4.57803 2.19951 0
M  V30 12075 H 1143.17 3.69939 3.7477 0
M  V30 12076 H 1145.67 2.92681 2.39053 0
M  V30 12077 H 1145.98 6.3612 4.3883 0
M  V30 12078 H 1144.32 5.71685 3.95223 0
M  V30 12079 H 1147.51 3.67811 2.89539 0
M  V30 12080 H 1147.69 5.24408 3.80657 0
M  V30 12081 N 1141.09 -1.09351 1.1349 0
M  V30 12082 C 1142.34 -1.81812 0.898452 0
M  V30 12083 C 1142.67 -1.85525 -0.573959 0
M  V30 12084 O 1141.95 -1.32403 -1.42477 0
M  V30 12085 C 1142.23 -3.27921 1.48794 0
M  V30 12086 C 1142.08 -3.32476 3.02952 0
M  V30 12087 C 1143.4 -4.24625 1.15678 0
M  V30 12088 H 1140.52 -0.660074 0.327829 0
M  V30 12089 H 1143.16 -1.28091 1.40331 0
M  V30 12090 H 1141.31 -3.738 1.05858 0
M  V30 12091 H 1142.99 -2.94994 3.54649 0
M  V30 12092 H 1141.23 -2.72037 3.37903 0
M  V30 12093 H 1141.9 -4.35409 3.39298 0
M  V30 12094 H 1144.38 -3.87036 1.52781 0
M  V30 12095 H 1143.25 -5.25194 1.59571 0
M  V30 12096 H 1143.51 -4.42044 0.0705933 0
M  V30 12097 N 1142.57 -0.928524 -1.27343 0
M  V30 12098 C 1143.48 -0.433901 -2.30553 0
M  V30 12099 C 1144.5 0.485832 -1.6708 0
M  V30 12100 O 1145.67 0.36844 -1.98001 0
M  V30 12101 C 1142.74 0.304617 -3.45359 0
M  V30 12102 C 1141.8 -0.650131 -4.24349 0
M  V30 12103 C 1141.03 0.0532372 -5.33673 0
M  V30 12104 O 1141.26 1.27246 -5.56026 0
M  V30 12105 O 1140.19 -0.619009 -5.98709 0
M  V30 12106 H 1144.02 -1.2909 -2.74899 0
M  V30 12107 H 1141.6 -0.693903 -1.32308 0
M  V30 12108 H 1143.48 0.721137 -4.15184 0
M  V30 12109 H 1142.16 1.13721 -3.03066 0
M  V30 12110 H 1141.06 -1.11635 -3.57055 0
M  V30 12111 H 1142.4 -1.44996 -4.70358 0
M  V30 12112 N 1144.05 1.41491 -0.694123 0
M  V30 12113 C 1145.47 1.55358 -0.365532 0
M  V30 12114 C 1145.67 1.66994 1.12762 0
M  V30 12115 O 1144.72 1.64756 1.91342 0
M  V30 12116 C 1146.03 2.79352 -1.11279 0
M  V30 12117 C 1147.58 2.93147 -1.097 0
M  V30 12118 C 1148.06 4.20027 -1.82597 0
M  V30 12119 N 1149.55 4.26981 -1.7956 0
M  V30 12120 C 1150.28 5.24013 -2.32805 0
M  V30 12121 N 1149.78 6.27083 -2.94515 0
M  V30 12122 N 1151.57 5.15943 -2.23069 0
M  V30 12123 H 1143.72 1.32183 -1.66257 0
M  V30 12124 H 1145.99 0.637624 -0.701527 0
M  V30 12125 H 1145.69 2.76958 -2.16765 0
M  V30 12126 H 1145.57 3.70827 -0.690439 0
M  V30 12127 H 1147.95 2.95057 -0.0504037 0
M  V30 12128 H 1148.03 2.02849 -1.55839 0
M  V30 12129 H 1147.68 4.18878 -2.87235 0
M  V30 12130 H 1147.61 5.09294 -1.33893 0
M  V30 12131 H 1150.1 3.53129 -1.34567 0
M  V30 12132 H 1150.41 6.97511 -3.32714 0
M  V30 12133 H 1148.76 6.27589 -2.98592 0
M  V30 12134 H 1151.95 4.34346 -1.74532 0
M  V30 12135 H 1152.12 5.91396 -2.64868 0
M  V30 12136 N 1145.53 0.438773 1.51369 0
M  V30 12137 C 1146.78 -0.128723 2.01289 0
M  V30 12138 C 1147.09 -1.43659 1.32745 0
M  V30 12139 O 1148.3 -2.08712 1.73642 0
M  V30 12140 C 1146.75 -0.279945 3.5881 0
M  V30 12141 C 1146.36 1.01758 4.3629 0
M  V30 12142 C 1148.1 -0.801133 4.16872 0
M  V30 12143 C 1146.01 0.831918 5.85519 0
M  V30 12144 H 1144.94 -0.0518814 0.752213 0
M  V30 12145 H 1147.59 0.568753 1.74463 0
M  V30 12146 H 1145.97 -1.04046 3.82087 0
M  V30 12147 H 1147.15 1.78653 4.24758 0
M  V30 12148 H 1145.46 1.46741 3.89687 0
M  V30 12149 H 1148.06 -0.956548 5.26074 0
M  V30 12150 H 1148.4 -1.78396 3.76139 0
M  V30 12151 H 1148.94 -0.0988934 3.97677 0
M  V30 12152 H 1145.67 1.78716 6.30667 0
M  V30 12153 H 1145.19 0.102785 5.99712 0
M  V30 12154 H 1146.87 0.485681 6.45174 0
M  V30 12155 N 1147.01 -1.56678 0.170181 0
M  V30 12156 C 1148.42 -1.83452 -0.346742 0
M  V30 12157 C 1148.77 -1.08993 -1.63141 0
M  V30 12158 O 1147.89 -0.342607 -2.13671 0
M  V30 12159 C 1148.49 -3.32779 -0.635882 0
M  V30 12160 C 1147.05 -3.60052 -1.09725 0
M  V30 12161 C 1146.19 -2.76983 -0.132516 0
M  V30 12162 H 1149.14 -1.53719 0.394465 0
M  V30 12163 H 1149.17 -3.50195 -1.48806 0
M  V30 12164 H 1148.68 -3.86944 0.299291 0
M  V30 12165 H 1146.78 -3.11297 -2.04756 0
M  V30 12166 H 1146.89 -4.68393 -1.00719 0
M  V30 12167 H 1145.26 -2.46794 -0.62966 0
M  V30 12168 H 1146.04 -3.33929 0.796658 0
M  V30 12169 N 1148.48 0.103547 -1.57259 0
M  V30 12170 C 1149.73 0.804704 -1.86805 0
M  V30 12171 C 1150.08 1.76756 -0.759942 0
M  V30 12172 O 1149.38 1.90106 0.238789 0
M  V30 12173 C 1149.57 1.57946 -3.20605 0
M  V30 12174 C 1149.4 0.693136 -4.44326 0
M  V30 12175 C 1148.17 0.342079 -5.04141 0
M  V30 12176 C 1150.37 0.00385713 -5.143 0
M  V30 12177 N 1148.35 -0.553293 -6.11402 0
M  V30 12178 C 1149.72 -0.74991 -6.15448 0
M  V30 12179 C 1151.78 -0.0709485 -4.97849 0
M  V30 12180 C 1150.48 -1.57148 -7.01924 0
M  V30 12181 C 1152.51 -0.879391 -5.84825 0
M  V30 12182 C 1151.87 -1.6213 -6.85488 0
M  V30 12183 H 1147.97 0.270899 -0.733579 0
M  V30 12184 H 1150.55 0.0676446 -1.94582 0
M  V30 12185 H 1148.72 2.28745 -3.13895 0
M  V30 12186 H 1150.45 2.22715 -3.37905 0
M  V30 12187 H 1147.21 0.687831 -4.68579 0
M  V30 12188 H 1147.63 -0.993284 -6.69674 0
M  V30 12189 H 1152.27 0.488299 -4.19971 0
M  V30 12190 H 1149.99 -2.14182 -7.79199 0
M  V30 12191 H 1153.58 -0.939834 -5.74159 0
M  V30 12192 H 1152.46 -2.2368 -7.51623 0
M  V30 12193 N 1149.96 1.53094 0.37415 0
M  V30 12194 C 1150.89 1.81901 1.46404 0
M  V30 12195 C 1151.87 0.671949 1.56265 0
M  V30 12196 O 1153.06 0.920978 1.70973 0
M  V30 12197 C 1150.19 2.00123 2.83845 0
M  V30 12198 C 1149.14 3.15864 2.88814 0
M  V30 12199 C 1148.47 3.19364 4.28848 0
M  V30 12200 C 1149.77 4.54633 2.57112 0
M  V30 12201 H 1151.46 2.73172 1.22546 0
M  V30 12202 H 1149.01 1.31444 0.588087 0
M  V30 12203 H 1150.96 2.18859 3.6011 0
M  V30 12204 H 1149.68 1.05555 3.09072 0
M  V30 12205 H 1148.34 2.96935 2.15 0
M  V30 12206 H 1147.99 2.2245 4.51137 0
M  V30 12207 H 1147.69 3.97123 4.3309 0
M  V30 12208 H 1149.22 3.40273 5.06997 0
M  V30 12209 H 1150.63 4.73587 3.23091 0
M  V30 12210 H 1149.03 5.34569 2.72683 0
M  V30 12211 H 1150.1 4.60331 1.52392 0
M  V30 12212 N 1151.44 -0.633461 1.44309 0
M  V30 12213 C 1152.4 -1.72743 1.50641 0
M  V30 12214 C 1153.4 -1.56031 0.388718 0
M  V30 12215 O 1154.59 -1.61568 0.651251 0
M  V30 12216 C 1151.72 -3.11804 1.37809 0
M  V30 12217 H 1152.92 -1.68503 2.48086 0
M  V30 12218 H 1150.47 -0.846912 1.31366 0
M  V30 12219 H 1151.21 -3.2164 0.414483 0
M  V30 12220 H 1150.99 -3.2534 2.18852 0
M  V30 12221 H 1152.48 -3.91538 1.45216 0
M  V30 12222 N 1152.92 -1.31168 -0.873655 0
M  V30 12223 C 1154.33 -1.18584 -1.44203 0
M  V30 12224 C 1154.68 0.209114 -1.95082 0
M  V30 12225 O 1153.81 1.10662 -1.85965 0
M  V30 12226 C 1154.4 -2.14668 -2.62112 0
M  V30 12227 C 1152.96 -2.06029 -3.15006 0
M  V30 12228 C 1152.11 -2.04106 -1.87712 0
M  V30 12229 H 1155.06 -1.43273 -0.682536 0
M  V30 12230 H 1155.08 -1.73413 -3.38686 0
M  V30 12231 H 1154.59 -3.16186 -2.25051 0
M  V30 12232 H 1152.69 -1.07693 -3.56697 0
M  V30 12233 H 1152.8 -2.9496 -3.77539 0
M  V30 12234 H 1151.17 -1.49069 -2.0652 0
M  V30 12235 H 1151.95 -3.07373 -1.52894 0
M  V30 12236 N 1154.4 1.08748 -1.14068 0
M  V30 12237 C 1155.31 2.19123 -0.837998 0
M  V30 12238 C 1156.32 1.73065 0.180164 0
M  V30 12239 O 1157.5 2.01398 0.00952285 0
M  V30 12240 C 1154.56 3.45257 -0.316 0
M  V30 12241 C 1153.62 4.05959 -1.39628 0
M  V30 12242 C 1152.86 5.26072 -0.899095 0
M  V30 12243 O 1153.08 5.69804 0.260744 0
M  V30 12244 O 1152.01 5.7808 -1.67652 0
M  V30 12245 H 1155.84 2.4748 -1.76033 0
M  V30 12246 H 1153.43 1.17816 -0.918675 0
M  V30 12247 H 1155.31 4.21389 -0.0306425 0
M  V30 12248 H 1153.98 3.18486 0.578654 0
M  V30 12249 H 1152.89 3.31432 -1.73505 0
M  V30 12250 H 1154.22 4.36971 -2.26533 0
M  V30 12251 N 1155.87 0.935264 1.26849 0
M  V30 12252 C 1157.11 0.587087 1.95787 0
M  V30 12253 C 1157.48 -0.856974 1.71814 0
M  V30 12254 O 1158.68 -1.3138 2.34505 0
M  V30 12255 C 1156.95 0.91303 3.45541 0
M  V30 12256 S 1158.51 0.674506 4.33585 0
M  V30 12257 H 1155.33 0.216442 0.677255 0
M  V30 12258 H 1157.93 1.20532 1.53923 0
M  V30 12259 H 1156.63 1.96154 3.60488 0
M  V30 12260 H 1156.16 0.28429 3.92371 0
M  V30 12261 H 1158.18 -0.464121 4.94025 0
M  V30 12262 N 1157.35 -1.41121 0.701616 0
M  V30 12263 C 1158.28 -2.33436 0.0545974 0
M  V30 12264 C 1159.26 -1.52144 -0.760662 0
M  V30 12265 O 1160.45 -1.80661 -0.712414 0
M  V30 12266 C 1157.58 -3.36015 -0.878117 0
M  V30 12267 C 1156.53 -4.27664 -0.169511 0
M  V30 12268 C 1155.86 -5.20666 -1.21699 0
M  V30 12269 C 1157.16 -5.13254 0.967859 0
M  V30 12270 H 1158.85 -2.87791 0.825637 0
M  V30 12271 H 1156.4 -1.38377 0.398484 0
M  V30 12272 H 1158.35 -3.99526 -1.34004 0
M  V30 12273 H 1157.08 -2.80024 -1.68089 0
M  V30 12274 H 1155.73 -3.65586 0.272441 0
M  V30 12275 H 1155.38 -4.60987 -2.01246 0
M  V30 12276 H 1155.08 -5.82822 -0.747836 0
M  V30 12277 H 1156.61 -5.87053 -1.6793 0
M  V30 12278 H 1158.02 -5.70298 0.585944 0
M  V30 12279 H 1156.42 -5.84381 1.3645 0
M  V30 12280 H 1157.49 -4.5006 1.80483 0
M  V30 12281 N 1158.83 -0.446794 -1.51134 0
M  V30 12282 C 1160.24 0.0141132 -1.86695 0
M  V30 12283 C 1160.59 1.41095 -1.36333 0
M  V30 12284 O 1159.72 2.04139 -0.718068 0
M  V30 12285 C 1160.31 0.0323866 -3.38785 0
M  V30 12286 C 1158.87 0.437737 -3.73846 0
M  V30 12287 C 1158.02 -0.363436 -2.74908 0
M  V30 12288 H 1160.97 -0.66221 -1.44224 0
M  V30 12289 H 1160.99 0.839865 -3.71115 0
M  V30 12290 H 1160.5 -0.984374 -3.75409 0
M  V30 12291 H 1158.6 1.45975 -3.42815 0
M  V30 12292 H 1158.72 0.155964 -4.78846 0
M  V30 12293 H 1157.08 0.179566 -2.54066 0
M  V30 12294 H 1157.86 -1.37925 -3.14375 0
M  V30 12295 N 1160.31 1.56586 -0.178487 0
M  V30 12296 C 1161.56 1.96709 0.4637 0
M  V30 12297 C 1161.88 1.06586 1.63292 0
M  V30 12298 O 1161.15 0.133683 1.95443 0
M  V30 12299 H 1159.73 0.726381 0.174299 0
M  V30 12300 H 1162.39 1.9314 -0.261345 0
M  V30 12301 H 1161.49 3.01164 0.818934 0
M  V30 12302 N 1161.79 -0.095206 1.57312 0
M  V30 12303 C 1163.03 -0.797142 1.85715 0
M  V30 12304 C 1163.36 -1.79275 0.767171 0
M  V30 12305 O 1162.63 -1.94808 -0.206584 0
M  V30 12306 H 1161.21 -0.297382 0.685254 0
M  V30 12307 H 1163.87 -0.0768617 1.94748 0
M  V30 12308 H 1162.96 -1.32779 2.82447 0
M  V30 12309 N 1163.26 -1.53291 -0.366026 0
M  V30 12310 C 1164.23 -1.79025 -1.43117 0
M  V30 12311 C 1165.23 -0.660676 -1.46601 0
M  V30 12312 O 1166.42 -0.928875 -1.47369 0
M  V30 12313 C 1163.55 -1.91192 -2.82238 0
M  V30 12314 H 1164.74 -2.74154 -1.21572 0
M  V30 12315 H 1162.3 -1.44361 -0.599132 0
M  V30 12316 H 1163.03 -0.98129 -3.09097 0
M  V30 12317 H 1162.82 -2.7335 -2.81109 0
M  V30 12318 H 1164.31 -2.12696 -3.59375 0
M  V30 12319 N 1164.74 0.6258 -1.44643 0
M  V30 12320 C 1165.69 1.75869 -1.52226 0
M  V30 12321 C 1166.68 1.64765 -0.39355 0
M  V30 12322 O 1167.89 1.70779 -0.568718 0
M  V30 12323 H 1164.27 0.580712 -0.477784 0
M  V30 12324 H 1166.24 1.66596 -2.47565 0
M  V30 12325 C 1164.99 3.14217 -1.48873 0
M  V30 12326 H 1164.31 3.23411 -2.35043 0
M  V30 12327 H 1165.75 3.93365 -1.58239 0
M  V30 12328 C 1164.21 3.36243 -0.210299 0
M  V30 12329 O 1164.74 3.95243 0.717335 0
M  V30 12330 N 1162.94 2.90385 -0.111744 0
M  V30 12331 H 1162.49 2.42555 -0.867466 0
M  V30 12332 H 1162.45 3.05498 0.742871 0
M  V30 12333 N 1166.22 1.31629 0.866686 0
M  V30 12334 C 1167.45 1.24609 1.65793 0
M  V30 12335 C 1167.87 -0.184944 1.87189 0
M  V30 12336 O 1167.23 -1.1322 1.41601 0
M  V30 12337 C 1167.28 1.9988 3.00134 0
M  V30 12338 O 1166.38 1.33838 3.90079 0
M  V30 12339 H 1165.72 0.430051 0.505917 0
M  V30 12340 H 1168.25 1.73752 1.08035 0
M  V30 12341 H 1168.26 2.09599 3.50046 0
M  V30 12342 H 1166.94 3.03947 2.83882 0
M  V30 12343 H 1165.51 1.3259 3.48532 0
M  V30 12344 N 1167.7 -1.08142 1.14644 0
M  V30 12345 C 1168.63 -2.17139 0.858667 0
M  V30 12346 C 1169.61 -1.69064 -0.187452 0
M  V30 12347 O 1170.8 -1.94151 -0.0435458 0
M  V30 12348 C 1167.93 -3.45648 0.33834 0
M  V30 12349 C 1166.88 -4.07129 1.32021 0
M  V30 12350 C 1166.21 -5.30623 0.659075 0
M  V30 12351 C 1167.51 -4.48095 2.68343 0
M  V30 12352 H 1169.2 -2.41468 1.77012 0
M  V30 12353 H 1166.75 -1.16052 0.852523 0
M  V30 12354 H 1168.7 -4.21216 0.124611 0
M  V30 12355 H 1167.42 -3.2088 -0.608553 0
M  V30 12356 H 1166.08 -3.33596 1.52016 0
M  V30 12357 H 1165.73 -5.02142 -0.293711 0
M  V30 12358 H 1165.43 -5.72714 1.31427 0
M  V30 12359 H 1166.95 -6.08903 0.454933 0
M  V30 12360 H 1168.37 -5.14828 2.5224 0
M  V30 12361 H 1166.76 -5.01113 3.30161 0
M  V30 12362 H 1167.83 -3.59852 3.25015 0
M  V30 12363 N 1169.18 -0.941978 -1.26351 0
M  V30 12364 C 1170.4 -0.606231 -1.98342 0
M  V30 12365 C 1170.83 0.812014 -1.6967 0
M  V30 12366 O 1170.19 1.54712 -0.9452 0
M  V30 12367 C 1170.23 -0.855864 -3.50296 0
M  V30 12368 O 1169.34 0.0716251 -4.12338 0
M  V30 12369 H 1168.68 -0.231815 -0.62222 0
M  V30 12370 H 1171.21 -1.26513 -1.60797 0
M  V30 12371 H 1171.22 -0.777079 -4.00531 0
M  V30 12372 H 1169.89 -1.8896 -3.70496 0
M  V30 12373 H 1168.47 -0.0582866 -3.72854 0
M  V30 12374 N 1170.66 1.40747 -0.709091 0
M  V30 12375 C 1171.88 2.05319 -0.255258 0
M  V30 12376 C 1172.3 1.53406 1.10054 0
M  V30 12377 O 1171.66 0.687905 1.69039 0
M  V30 12378 C 1171.71 3.60835 -0.219251 0
M  V30 12379 O 1171.43 4.1083 -1.52151 0
M  V30 12380 C 1172.93 4.42572 0.253927 0
M  V30 12381 H 1170.15 0.660904 -0.115959 0
M  V30 12382 H 1172.69 1.80274 -0.965474 0
M  V30 12383 H 1170.85 3.84872 0.441882 0
M  V30 12384 H 1171.26 5.04979 -1.41764 0
M  V30 12385 H 1172.74 5.51529 0.22798 0
M  V30 12386 H 1173.21 4.19673 1.29504 0
M  V30 12387 H 1173.82 4.23629 -0.376694 0
M  V30 12388 N 1172.13 0.454803 1.50895 0
M  V30 12389 C 1173.1 -0.336293 2.26719 0
M  V30 12390 C 1174.1 -0.93464 1.30848 0
M  V30 12391 O 1175.29 -0.80636 1.54413 0
M  V30 12392 C 1172.42 -1.47744 3.07221 0
M  V30 12393 H 1173.61 0.328462 2.98096 0
M  V30 12394 H 1171.16 0.208419 1.54904 0
M  V30 12395 H 1171.9 -2.17773 2.40302 0
M  V30 12396 H 1171.68 -1.05438 3.77658 0
M  V30 12397 H 1173.17 -2.03592 3.6461 0
M  V30 12398 N 1173.61 -1.56489 0.186789 0
M  V30 12399 C 1174.54 -2.14583 -0.776487 0
M  V30 12400 C 1175.52 -1.0802 -1.21534 0
M  V30 12401 O 1176.71 -1.36085 -1.30434 0
M  V30 12402 C 1173.83 -2.69798 -2.04761 0
M  V30 12403 C 1172.88 -3.88874 -1.75155 0
M  V30 12404 S 1173.71 -5.27763 -0.907026 0
M  V30 12405 C 1174.87 -5.86393 -2.18847 0
M  V30 12406 H 1175.1 -2.95954 -0.282602 0
M  V30 12407 H 1172.63 -1.54374 -0.0280989 0
M  V30 12408 H 1174.59 -3.02254 -2.77764 0
M  V30 12409 H 1173.25 -1.88484 -2.51262 0
M  V30 12410 H 1172.45 -4.25888 -2.69509 0
M  V30 12411 H 1172.05 -3.57384 -1.10239 0
M  V30 12412 H 1174.34 -6.00249 -3.14177 0
M  V30 12413 H 1175.28 -6.83159 -1.86278 0
M  V30 12414 H 1175.69 -5.14931 -2.31314 0
M  V30 12415 N 1175.09 0.086862 -1.5736 0
M  V30 12416 C 1176.37 0.820984 -1.77537 0
M  V30 12417 C 1176.75 1.96534 -0.770554 0
M  V30 12418 O 1176.09 2.27629 0.199334 0
M  V30 12419 C 1176.3 1.30793 -3.23565 0
M  V30 12420 C 1177.65 1.7474 -3.86977 0
M  V30 12421 O 1178.68 1.40396 -3.27364 0
M  V30 12422 O 1177.54 2.38271 -4.91822 0
M  V30 12423 H 1174.63 0.392228 -0.72807 0
M  V30 12424 H 1177.18 0.0681051 -1.69563 0
M  V30 12425 H 1175.95 0.488409 -3.8824 0
M  V30 12426 H 1175.57 2.12258 -3.36203 0
M  V30 12427 N 1176.57 1.53483 0.357892 0
M  V30 12428 C 1177.51 1.80463 1.43881 0
M  V30 12429 C 1178.48 0.649438 1.52877 0
M  V30 12430 O 1179.67 0.892409 1.68644 0
M  V30 12431 C 1176.81 2.00714 2.80727 0
M  V30 12432 C 1175.92 3.28431 2.80637 0
M  V30 12433 C 1175.06 3.38828 4.09107 0
M  V30 12434 C 1174.1 4.60549 4.03189 0
M  V30 12435 N 1173.23 4.68057 5.23323 0
M  V30 12436 H 1178.07 2.72694 1.20174 0
M  V30 12437 H 1175.61 1.35079 0.582422 0
M  V30 12438 H 1177.57 2.10444 3.60235 0
M  V30 12439 H 1176.2 1.11811 3.02817 0
M  V30 12440 H 1175.25 3.27617 1.93317 0
M  V30 12441 H 1176.56 4.18022 2.72138 0
M  V30 12442 H 1175.72 3.47911 4.97034 0
M  V30 12443 H 1174.46 2.47267 4.20369 0
M  V30 12444 H 1173.46 4.51558 3.13649 0
M  V30 12445 H 1174.69 5.53459 3.93523 0
M  V30 12446 H 1172.63 3.794 5.35156 0
M  V30 12447 H 1172.55 5.51563 5.17024 0
M  V30 12448 H 1173.82 4.81433 6.1306 0
M  V30 12449 N 1178.05 -0.61812 1.44973 0
M  V30 12450 C 1179.29 -1.37754 1.4965 0
M  V30 12451 C 1179.65 -1.91945 0.132201 0
M  V30 12452 O 1178.94 -1.71493 -0.854439 0
M  V30 12453 C 1179.13 -2.55143 2.50274 0
M  V30 12454 C 1178.96 -2.12446 3.96354 0
M  V30 12455 C 1177.73 -1.99112 4.64416 0
M  V30 12456 C 1179.93 -1.70557 4.85196 0
M  V30 12457 N 1177.91 -1.50114 5.95264 0
M  V30 12458 C 1179.28 -1.329 6.05589 0
M  V30 12459 C 1181.34 -1.58054 4.72147 0
M  V30 12460 C 1180.04 -0.839882 7.1438 0
M  V30 12461 C 1182.07 -1.10547 5.80976 0
M  V30 12462 C 1181.43 -0.738477 7.00518 0
M  V30 12463 H 1177.53 -0.498393 0.602601 0
M  V30 12464 H 1180.11 -0.70775 1.81381 0
M  V30 12465 H 1178.28 -3.19732 2.20513 0
M  V30 12466 H 1180.02 -3.21988 2.45166 0
M  V30 12467 H 1176.77 -2.19971 4.19416 0
M  V30 12468 H 1177.19 -1.27878 6.64813 0
M  V30 12469 H 1181.84 -1.85056 3.8015 0
M  V30 12470 H 1179.55 -0.557395 8.06175 0
M  V30 12471 H 1183.14 -1.01314 5.72911 0
M  V30 12472 H 1182.02 -0.376513 7.83296 0
M  V30 12473 N 1179.52 -1.32087 -0.859693 0
M  V30 12474 C 1180.77 -1.22119 -1.61033 0
M  V30 12475 C 1181.09 0.218289 -1.93774 0
M  V30 12476 O 1180.36 1.14172 -1.5919 0
M  V30 12477 H 1178.94 -0.448989 -0.597008 0
M  V30 12478 H 1181.6 -1.65545 -1.02863 0
M  V30 12479 H 1180.7 -1.80023 -2.54947 0
M  V30 12480 N 1181 1.07532 -1.15215 0
M  V30 12481 C 1182.25 1.80093 -0.925891 0
M  V30 12482 C 1182.58 1.86648 0.547079 0
M  V30 12483 O 1181.83 1.34492 1.42164 0
M  V30 12484 C 1182.13 3.2518 -1.483 0
M  V30 12485 C 1181.8 3.38728 -2.97614 0
M  V30 12486 C 1180.46 3.42133 -3.38376 0
M  V30 12487 C 1182.81 3.41676 -3.93583 0
M  V30 12488 C 1180.14 3.46086 -4.73752 0
M  V30 12489 C 1182.49 3.47166 -5.28828 0
M  V30 12490 C 1181.15 3.48847 -5.69089 0
M  V30 12491 H 1180.42 0.659007 -0.338808 0
M  V30 12492 H 1183.07 1.26548 -1.43728 0
M  V30 12493 H 1181.38 3.81493 -0.892751 0
M  V30 12494 H 1183.07 3.79895 -1.28376 0
M  V30 12495 H 1179.66 3.36775 -2.65105 0
M  V30 12496 H 1183.85 3.38268 -3.63165 0
M  V30 12497 H 1179.1 3.45686 -5.04293 0
M  V30 12498 H 1183.28 3.48393 -6.02989 0
M  V30 12499 H 1180.9 3.51663 -6.73971 0
M  V30 12500 N 1182.48 0.948665 1.2585 0
M  V30 12501 C 1183.73 0.59905 1.93018 0
M  V30 12502 C 1184.05 -0.865813 1.74725 0
M  V30 12503 O 1183.32 -1.61602 1.10732 0
M  V30 12504 H 1181.9 0.218565 0.71431 0
M  V30 12505 H 1184.56 1.20561 1.53137 0
M  V30 12506 H 1183.66 0.823244 3.01047 0
M  V30 12507 N 1183.96 -1.40369 0.716545 0
M  V30 12508 C 1184.92 -2.29083 0.0733105 0
M  V30 12509 C 1185.92 -1.45415 -0.686378 0
M  V30 12510 O 1187.11 -1.66316 -0.518139 0
M  V30 12511 C 1184.24 -3.28639 -0.906032 0
M  V30 12512 H 1185.44 -2.87464 0.85467 0
M  V30 12513 H 1182.99 -1.48706 0.481256 0
M  V30 12514 H 1183.72 -2.75279 -1.71441 0
M  V30 12515 H 1183.51 -3.90405 -0.364163 0
M  V30 12516 H 1185 -3.95066 -1.35324 0
M  V30 12517 N 1185.44 -0.462799 -1.50652 0
M  V30 12518 C 1186.66 0.0929761 -2.06691 0
M  V30 12519 C 1187.08 1.34241 -1.32758 0
M  V30 12520 O 1186.44 1.78187 -0.394427 0
M  V30 12521 C 1186.49 0.389492 -3.59396 0
M  V30 12522 O 1186.21 -0.810379 -4.3054 0
M  V30 12523 C 1187.71 0.993147 -4.32032 0
M  V30 12524 H 1184.93 -0.00338664 -0.670991 0
M  V30 12525 H 1187.47 -0.649201 -1.93922 0
M  V30 12526 H 1185.63 1.08159 -3.71995 0
M  V30 12527 H 1186.04 -0.54996 -5.21609 0
M  V30 12528 H 1187.52 1.15044 -5.39878 0
M  V30 12529 H 1187.99 1.98106 -3.91983 0
M  V30 12530 H 1188.6 0.339677 -4.23941 0
M  V30 12531 N 1186.91 1.56388 -0.195085 0
M  V30 12532 C 1187.84 2.22091 0.720971 0
M  V30 12533 C 1188.83 1.184 1.22128 0
M  V30 12534 O 1190.01 1.46907 1.27012 0
M  V30 12535 C 1187.14 2.88025 1.94059 0
M  V30 12536 C 1186.09 3.97959 1.5752 0
M  V30 12537 C 1185.42 4.51058 2.87143 0
M  V30 12538 C 1186.72 5.16365 0.785145 0
M  V30 12539 H 1188.41 2.98898 0.173245 0
M  V30 12540 H 1185.96 1.43767 0.0818868 0
M  V30 12541 H 1187.91 3.32671 2.58666 0
M  V30 12542 H 1186.64 2.08623 2.51285 0
M  V30 12543 H 1185.3 3.54004 0.952715 0
M  V30 12544 H 1184.94 3.68418 3.42458 0
M  V30 12545 H 1184.64 5.25237 2.63439 0
M  V30 12546 H 1186.17 4.98406 3.52738 0
M  V30 12547 H 1187.58 5.57556 1.33431 0
M  V30 12548 H 1185.98 5.9661 0.646231 0
M  V30 12549 H 1187.05 4.84428 -0.213789 0
M  V30 12550 N 1188.39 -0.0785156 1.57404 0
M  V30 12551 C 1189.32 -1.09446 2.06262 0
M  V30 12552 C 1190.3 -1.40777 0.954772 0
M  V30 12553 O 1191.49 -1.5052 1.22708 0
M  V30 12554 C 1188.62 -2.40979 2.50093 0
M  V30 12555 C 1187.57 -2.24017 3.64692 0
M  V30 12556 C 1186.9 -3.60873 3.94556 0
M  V30 12557 C 1188.2 -1.66696 4.94985 0
M  V30 12558 H 1189.89 -0.687928 2.9139 0
M  V30 12559 H 1187.44 -0.329466 1.4018 0
M  V30 12560 H 1189.39 -3.12337 2.82884 0
M  V30 12561 H 1188.12 -2.83599 1.61985 0
M  V30 12562 H 1186.77 -1.55101 3.32174 0
M  V30 12563 H 1186.42 -4.01051 3.0359 0
M  V30 12564 H 1186.12 -3.50365 4.71718 0
M  V30 12565 H 1187.65 -4.33673 4.29837 0
M  V30 12566 H 1189.06 -2.27913 5.2605 0
M  V30 12567 H 1187.46 -1.66902 5.76423 0
M  V30 12568 H 1188.53 -0.627827 4.80818 0
M  V30 12569 N 1189.87 -1.5367 -0.349747 0
M  V30 12570 C 1190.78 -1.84207 -1.45275 0
M  V30 12571 C 1191.8 -0.731695 -1.57868 0
M  V30 12572 O 1192.97 -1.02337 -1.73462 0
M  V30 12573 C 1190.04 -2.0398 -2.80345 0
M  V30 12574 C 1189.1 -3.27853 -2.77148 0
M  V30 12575 C 1188.33 -3.46673 -4.05775 0
M  V30 12576 O 1188.55 -2.69457 -5.02741 0
M  V30 12577 O 1187.49 -4.40082 -4.10623 0
M  V30 12578 H 1191.31 -2.77947 -1.22389 0
M  V30 12579 H 1188.9 -1.39247 -0.541345 0
M  V30 12580 H 1190.78 -2.18466 -3.60348 0
M  V30 12581 H 1189.46 -1.13429 -3.03176 0
M  V30 12582 H 1188.36 -3.18776 -1.95787 0
M  V30 12583 H 1189.7 -4.18377 -2.59271 0
M  V30 12584 N 1191.35 0.610423 -1.45298 0
M  V30 12585 C 1192.6 1.36558 -1.48441 0
M  V30 12586 C 1192.91 1.95173 -0.129137 0
M  V30 12587 O 1194.12 2.71473 -0.0381956 0
M  V30 12588 C 1192.57 2.47349 -2.61431 0
M  V30 12589 C 1192.18 1.95158 -4.03258 0
M  V30 12590 C 1193.92 3.24383 -2.73817 0
M  V30 12591 C 1191.83 3.03414 -5.07635 0
M  V30 12592 H 1190.76 0.513253 -0.552347 0
M  V30 12593 H 1193.41 0.654535 -1.7143 0
M  V30 12594 H 1191.79 3.21125 -2.31721 0
M  V30 12595 H 1192.97 1.2811 -4.42634 0
M  V30 12596 H 1191.28 1.30878 -3.95297 0
M  V30 12597 H 1193.88 4.05123 -3.48969 0
M  V30 12598 H 1194.22 3.75205 -1.80352 0
M  V30 12599 H 1194.76 2.57705 -3.03039 0
M  V30 12600 H 1191.5 2.57512 -6.028 0
M  V30 12601 H 1191.02 3.69039 -4.72833 0
M  V30 12602 H 1192.69 3.67844 -5.32259 0
M  V30 12603 N 1192.83 1.32541 0.852676 0
M  V30 12604 C 1194.07 1.24532 1.62083 0
M  V30 12605 C 1194.43 -0.189531 1.91062 0
M  V30 12606 O 1195.63 -0.393382 2.65906 0
M  V30 12607 C 1193.9 2.0828 2.90438 0
M  V30 12608 S 1195.46 2.17317 3.81207 0
M  V30 12609 H 1192.28 0.443261 0.555915 0
M  V30 12610 H 1194.88 1.67413 1.00961 0
M  V30 12611 H 1193.59 3.11587 2.67099 0
M  V30 12612 H 1193.12 1.66184 3.56576 0
M  V30 12613 H 1195.13 1.32412 4.78207 0
M  V30 12614 N 1194.3 -1.0692 1.15784 0
M  V30 12615 C 1195.55 -1.796 0.935429 0
M  V30 12616 C 1195.88 -1.86935 -0.537173 0
M  V30 12617 O 1195.13 -1.35244 -1.41448 0
M  V30 12618 C 1195.43 -3.24389 1.50022 0
M  V30 12619 C 1195.1 -3.37145 2.99406 0
M  V30 12620 C 1193.76 -3.40334 3.40186 0
M  V30 12621 C 1196.11 -3.39584 3.95389 0
M  V30 12622 C 1193.44 -3.43569 4.75581 0
M  V30 12623 C 1195.79 -3.44356 5.30661 0
M  V30 12624 C 1194.46 -3.45824 5.70931 0
M  V30 12625 H 1193.73 -0.657201 0.342298 0
M  V30 12626 H 1196.37 -1.25784 1.44397 0
M  V30 12627 H 1194.68 -3.81015 0.91297 0
M  V30 12628 H 1196.38 -3.79209 1.30389 0
M  V30 12629 H 1192.97 -3.35365 2.66887 0
M  V30 12630 H 1197.15 -3.36337 3.64954 0
M  V30 12631 H 1192.41 -3.43006 5.06119 0
M  V30 12632 H 1196.58 -3.4519 6.04828 0
M  V30 12633 H 1194.21 -3.48084 6.75826 0
M  V30 12634 N 1195.78 -0.955326 -1.25345 0
M  V30 12635 C 1197.06 -0.527828 -1.88344 0
M  V30 12636 C 1197.44 0.994911 -1.86185 0
M  V30 12637 O 1196.79 1.86099 -1.32587 0
M  V30 12638 C 1197 -1.10525 -3.31037 0
M  V30 12639 C 1198.35 -1.18253 -4.07801 0
M  V30 12640 O 1199.37 -1.05685 -3.4016 0
M  V30 12641 O 1198.23 -1.37978 -5.28795 0
M  V30 12642 H 1195.32 -0.174206 -0.808444 0
M  V30 12643 H 1197.87 -1.0488 -1.3341 0
M  V30 12644 H 1196.64 -2.14847 -3.27042 0
M  V30 12645 H 1196.26 -0.567568 -3.93528 0
M  V30 12646 N 1197.26 1.39987 -0.723979 0
M  V30 12647 C 1198.51 2.00334 -0.266587 0
M  V30 12648 C 1198.83 1.57714 1.14679 0
M  V30 12649 O 1198.1 0.82037 1.77895 0
M  V30 12650 H 1196.68 0.740861 -0.095573 0
M  V30 12651 H 1199.34 1.712 -0.931481 0
M  V30 12652 H 1198.44 3.10594 -0.306282 0
M  V30 12653 N 1198.74 0.470782 1.50404 0
M  V30 12654 C 1199.65 -0.328877 2.32283 0
M  V30 12655 C 1200.67 -0.99629 1.42654 0
M  V30 12656 O 1201.84 -0.984331 1.75707 0
M  V30 12657 C 1198.91 -1.39675 3.1732 0
M  V30 12658 C 1197.97 -0.745965 4.22769 0
M  V30 12659 C 1197.2 -1.76295 5.03742 0
M  V30 12660 O 1197.42 -2.98943 4.85788 0
M  V30 12661 O 1196.36 -1.33495 5.86909 0
M  V30 12662 H 1200.18 0.340491 3.01785 0
M  V30 12663 H 1197.77 0.232637 1.47578 0
M  V30 12664 H 1199.65 -2.0153 3.70086 0
M  V30 12665 H 1198.33 -2.04959 2.50546 0
M  V30 12666 H 1197.23 -0.0884647 3.73995 0
M  V30 12667 H 1198.57 -0.136074 4.92012 0
M  V30 12668 N 1200.22 -1.56282 0.203376 0
M  V30 12669 C 1201.18 -2.18233 -0.700489 0
M  V30 12670 C 1202.18 -1.13908 -1.13497 0
M  V30 12671 O 1203.37 -1.39246 -1.04672 0
M  V30 12672 C 1200.5 -2.79107 -1.95735 0
M  V30 12673 H 1201.7 -2.99469 -0.160649 0
M  V30 12674 H 1199.25 -1.56232 -0.0462475 0
M  V30 12675 H 1199.98 -2.01691 -2.53951 0
M  V30 12676 H 1199.77 -3.55486 -1.65446 0
M  V30 12677 H 1201.26 -3.2665 -2.60172 0
M  V30 12678 N 1201.7 0.070167 -1.57444 0
M  V30 12679 C 1203.11 0.621805 -1.76041 0
M  V30 12680 C 1203.46 1.77824 -0.829047 0
M  V30 12681 O 1202.58 2.16396 -0.0135453 0
M  V30 12682 C 1203.18 1.13476 -3.19231 0
M  V30 12683 C 1201.74 1.63225 -3.39167 0
M  V30 12684 C 1200.88 0.552369 -2.71743 0
M  V30 12685 H 1203.83 -0.156009 -1.57931 0
M  V30 12686 H 1203.86 2.00352 -3.2348 0
M  V30 12687 H 1203.37 0.29288 -3.86993 0
M  V30 12688 H 1201.47 2.49733 -2.76522 0
M  V30 12689 H 1201.58 1.70807 -4.47618 0
M  V30 12690 H 1199.95 0.997797 -2.34342 0
M  V30 12691 H 1200.73 -0.279354 -3.42162 0
M  V30 12692 N 1203.17 1.53854 0.341593 0
M  V30 12693 C 1204.1 1.84966 1.42513 0
M  V30 12694 C 1205.08 0.704944 1.54805 0
M  V30 12695 O 1206.27 0.957036 1.68981 0
M  V30 12696 C 1203.4 2.06099 2.79536 0
M  V30 12697 C 1202.35 3.21919 2.82049 0
M  V30 12698 C 1201.68 3.28389 4.21977 0
M  V30 12699 C 1202.98 4.59984 2.4741 0
M  V30 12700 H 1204.67 2.7571 1.16724 0
M  V30 12701 H 1202.22 1.32662 0.560073 0
M  V30 12702 H 1204.17 2.26448 3.55386 0
M  V30 12703 H 1202.9 1.12087 3.06764 0
M  V30 12704 H 1201.56 3.01429 2.08653 0
M  V30 12705 H 1201.2 2.3197 4.46317 0
M  V30 12706 H 1200.9 4.0622 4.24569 0
M  V30 12707 H 1202.43 3.50951 4.99666 0
M  V30 12708 H 1203.84 4.80334 3.12973 0
M  V30 12709 H 1202.24 5.40233 2.61282 0
M  V30 12710 H 1203.31 4.6346 1.42594 0
M  V30 12711 N 1204.65 -0.602709 1.4562 0
M  V30 12712 C 1205.58 -1.7271 1.50678 0
M  V30 12713 C 1206.6 -1.57884 0.397048 0
M  V30 12714 O 1207.79 -1.65676 0.664367 0
M  V30 12715 C 1204.89 -3.10762 1.35204 0
M  V30 12716 C 1204.06 -3.51782 2.59939 0
M  V30 12717 C 1203.12 -4.68816 2.38952 0
M  V30 12718 O 1202.14 -4.75686 3.12588 0
M  V30 12719 N 1203.35 -5.624 1.43827 0
M  V30 12720 H 1206.11 -1.68833 2.47619 0
M  V30 12721 H 1203.67 -0.788131 1.41422 0
M  V30 12722 H 1205.66 -3.86819 1.18967 0
M  V30 12723 H 1204.23 -3.09119 0.465203 0
M  V30 12724 H 1203.45 -2.65637 2.91257 0
M  V30 12725 H 1204.74 -3.75948 3.42842 0
M  V30 12726 H 1204.14 -5.59568 0.830669 0
M  V30 12727 H 1202.7 -6.37969 1.33561 0
M  V30 12728 N 1206.13 -1.32992 -0.845635 0
M  V30 12729 C 1207.35 -1.27231 -1.6379 0
M  V30 12730 C 1207.78 0.155141 -1.87459 0
M  V30 12731 O 1207.14 1.10953 -1.43384 0
M  V30 12732 C 1207.19 -2.04629 -2.96916 0
M  V30 12733 O 1206.29 -1.40027 -3.879 0
M  V30 12734 H 1205.63 -0.438045 -0.499011 0
M  V30 12735 H 1208.16 -1.75448 -1.05257 0
M  V30 12736 H 1208.17 -2.15141 -3.46667 0
M  V30 12737 H 1206.85 -3.08425 -2.79011 0
M  V30 12738 H 1205.42 -1.38118 -3.46378 0
M  V30 12739 N 1207.61 1.06304 -1.1635 0
M  V30 12740 C 1209.02 1.31227 -0.90838 0
M  V30 12741 C 1209.22 1.96665 0.438779 0
M  V30 12742 O 1208.28 2.2332 1.17833 0
M  V30 12743 C 1209.59 2.19303 -2.05734 0
M  V30 12744 C 1211.14 2.3272 -2.09309 0
M  V30 12745 C 1211.62 3.24151 -3.23559 0
M  V30 12746 N 1213.11 3.31734 -3.23275 0
M  V30 12747 C 1213.84 4.02572 -4.08318 0
M  V30 12748 N 1213.34 4.75933 -5.03448 0
M  V30 12749 N 1215.13 3.98621 -3.96305 0
M  V30 12750 H 1207.28 0.622228 -2.03081 0
M  V30 12751 H 1209.54 0.336892 -0.886119 0
M  V30 12752 H 1209.25 1.78497 -3.03037 0
M  V30 12753 H 1209.12 3.19888 -1.99879 0
M  V30 12754 H 1211.51 2.72774 -1.12599 0
M  V30 12755 H 1211.59 1.31804 -2.19229 0
M  V30 12756 H 1211.24 2.84813 -4.20528 0
M  V30 12757 H 1211.17 4.25046 -3.10875 0
M  V30 12758 H 1213.66 2.79453 -2.5439 0
M  V30 12759 H 1213.97 5.27512 -5.64758 0
M  V30 12760 H 1212.32 4.74913 -5.07427 0
M  V30 12761 H 1215.51 3.40427 -3.21289 0
M  V30 12762 H 1215.68 4.5356 -4.62804 0
M  V30 12763 N 1209.09 0.96196 1.24836 0
M  V30 12764 C 1210.31 0.637709 1.97353 0
M  V30 12765 C 1210.74 -0.784919 1.7094 0
M  V30 12766 O 1210.09 -1.53188 0.969694 0
M  V30 12767 C 1210.14 0.911485 3.4889 0
M  V30 12768 O 1209.25 -0.00601668 4.124 0
M  V30 12769 H 1208.59 0.241685 0.618453 0
M  V30 12770 H 1211.12 1.29055 1.58764 0
M  V30 12771 H 1211.13 0.840702 3.99245 0
M  V30 12772 H 1209.8 1.9483 3.67442 0
M  V30 12773 H 1208.38 0.117597 3.72715 0
M  V30 12774 N 1210.56 -1.39601 0.731392 0
M  V30 12775 C 1211.97 -1.83424 0.348194 0
M  V30 12776 C 1212.33 -1.61106 -1.11979 0
M  V30 12777 O 1211.45 -1.1003 -1.86339 0
M  V30 12778 C 1212.05 -3.32982 0.6252 0
M  V30 12779 C 1210.6 -3.75238 0.295536 0
M  V30 12780 C 1209.75 -2.62642 0.88964 0
M  V30 12781 H 1212.7 -1.28644 0.929318 0
M  V30 12782 H 1212.72 -3.80357 -0.104254 0
M  V30 12783 H 1212.24 -3.49193 1.69368 0
M  V30 12784 H 1210.34 -3.64615 -0.767254 0
M  V30 12785 H 1210.45 -4.72781 0.775576 0
M  V30 12786 H 1208.81 -2.52726 0.316529 0
M  V30 12787 H 1209.6 -2.81661 1.96271 0
M  V30 12788 N 1212.04 -0.478751 -1.50152 0
M  V30 12789 C 1213.27 0.0732929 -2.0727 0
M  V30 12790 C 1213.69 1.32066 -1.33941 0
M  V30 12791 O 1213.05 1.7707 -0.389367 0
M  V30 12792 C 1213.1 0.332528 -3.59064 0
M  V30 12793 O 1212.2 1.41158 -3.8749 0
M  V30 12794 H 1211.54 -0.0163684 -0.663798 0
M  V30 12795 H 1214.07 -0.671993 -1.9325 0
M  V30 12796 H 1214.08 0.570735 -4.03988 0
M  V30 12797 H 1212.76 -0.578934 -4.11851 0
M  V30 12798 H 1211.34 1.16008 -3.54396 0
M  V30 12799 N 1213.52 1.56172 -0.211661 0
M  V30 12800 C 1214.43 2.23468 0.714081 0
M  V30 12801 C 1215.45 1.23908 1.22159 0
M  V30 12802 O 1216.62 1.56693 1.26528 0
M  V30 12803 C 1213.69 2.89375 1.90953 0
M  V30 12804 C 1212.75 4.04251 1.44497 0
M  V30 12805 C 1211.98 4.67006 2.58343 0
M  V30 12806 O 1212.2 4.28721 3.76237 0
M  V30 12807 O 1211.14 5.56177 2.3011 0
M  V30 12808 H 1214.96 3.03219 0.170862 0
M  V30 12809 H 1212.55 1.49389 0.0183607 0
M  V30 12810 H 1214.43 3.3101 2.60787 0
M  V30 12811 H 1213.11 2.12591 2.44104 0
M  V30 12812 H 1212.01 3.67205 0.714932 0
M  V30 12813 H 1213.35 4.82748 0.959947 0
M  V30 12814 N 1215 -0.0618163 1.57479 0
M  V30 12815 C 1215.95 -1.0724 2.04373 0
M  V30 12816 C 1216.92 -1.37875 0.926271 0
M  V30 12817 O 1218.1 -1.48772 1.19463 0
M  V30 12818 C 1215.24 -2.37805 2.50085 0
M  V30 12819 C 1214.35 -2.13614 3.7549 0
M  V30 12820 C 1213.49 -3.37814 4.09945 0
M  V30 12821 C 1212.53 -3.09032 5.28361 0
M  V30 12822 N 1211.66 -4.25591 5.58406 0
M  V30 12823 H 1216.5 -0.665536 2.90473 0
M  V30 12824 H 1214.04 -0.317043 1.43643 0
M  V30 12825 H 1216 -3.14048 2.74644 0
M  V30 12826 H 1214.63 -2.76275 1.66948 0
M  V30 12827 H 1213.68 -1.28017 3.58212 0
M  V30 12828 H 1214.99 -1.88361 4.61867 0
M  V30 12829 H 1214.15 -4.22447 4.35458 0
M  V30 12830 H 1212.89 -3.66153 3.22154 0
M  V30 12831 H 1211.89 -2.22797 5.02635 0
M  V30 12832 H 1213.12 -2.82006 6.17778 0
M  V30 12833 H 1211.06 -4.53941 4.73575 0
M  V30 12834 H 1210.98 -4.03646 6.39223 0
M  V30 12835 H 1212.25 -5.11191 5.88476 0
M  V30 12836 N 1216.48 -1.54033 -0.333429 0
M  V30 12837 C 1217.39 -1.85737 -1.43314 0
M  V30 12838 C 1218.4 -0.748398 -1.57083 0
M  V30 12839 O 1219.58 -1.04171 -1.72367 0
M  V30 12840 C 1216.64 -2.06942 -2.78165 0
M  V30 12841 C 1215.7 -3.30774 -2.73655 0
M  V30 12842 C 1214.94 -3.50957 -4.02075 0
M  V30 12843 O 1215.16 -2.74774 -4.99855 0
M  V30 12844 O 1214.09 -4.44412 -4.05933 0
M  V30 12845 H 1217.92 -2.7923 -1.19434 0
M  V30 12846 H 1215.51 -1.39814 -0.526546 0
M  V30 12847 H 1217.39 -2.22276 -3.58011 0
M  V30 12848 H 1216.06 -1.16638 -3.01956 0
M  V30 12849 H 1214.97 -3.20835 -1.92395 0
M  V30 12850 H 1216.3 -4.21103 -2.54819 0
M  V30 12851 N 1217.95 0.594978 -1.45938 0
M  V30 12852 C 1218.9 1.69949 -1.51991 0
M  V30 12853 C 1219.89 1.56301 -0.381956 0
M  V30 12854 O 1221.08 1.65423 -0.62961 0
M  V30 12855 C 1218.21 3.08723 -1.5015 0
M  V30 12856 C 1217.3 3.27712 -2.69194 0
M  V30 12857 N 1217.69 3.1691 -3.9421 0
M  V30 12858 C 1215.98 3.58618 -2.65158 0
M  V30 12859 C 1216.69 3.37572 -4.7373 0
M  V30 12860 N 1215.66 3.62154 -4.05395 0
M  V30 12861 H 1219.46 1.60109 -2.46459 0
M  V30 12862 H 1216.98 0.798634 -1.41406 0
M  V30 12863 H 1218.97 3.87978 -1.52573 0
M  V30 12864 H 1217.63 3.19702 -0.567488 0
M  V30 12865 H 1218.65 2.95039 -4.25643 0
M  V30 12866 H 1215.32 3.76358 -1.80724 0
M  V30 12867 H 1216.71 3.34507 -5.82713 0
M  V30 12868 N 1219.43 1.33438 0.838571 0
M  V30 12869 C 1220.68 1.24912 1.59384 0
M  V30 12870 C 1221.01 -0.185017 1.93618 0
M  V30 12871 O 1220.26 -1.14229 1.58904 0
M  V30 12872 C 1220.56 2.07002 2.9135 0
M  V30 12873 C 1220.23 3.5619 2.76477 0
M  V30 12874 C 1218.89 3.96862 2.72129 0
M  V30 12875 C 1221.24 4.5099 2.61261 0
M  V30 12876 C 1218.57 5.30551 2.50464 0
M  V30 12877 C 1220.92 5.84841 2.4113 0
M  V30 12878 C 1219.59 6.24696 2.35183 0
M  V30 12879 H 1218.86 0.457084 0.583228 0
M  V30 12880 H 1221.5 1.65027 0.971506 0
M  V30 12881 H 1219.81 1.59665 3.57791 0
M  V30 12882 H 1221.5 1.97762 3.48843 0
M  V30 12883 H 1218.09 3.23896 2.80695 0
M  V30 12884 H 1222.28 4.20476 2.63655 0
M  V30 12885 H 1217.53 5.60468 2.44307 0
M  V30 12886 H 1221.71 6.57901 2.2834 0
M  V30 12887 H 1219.34 7.28225 2.18156 0
M  V30 12888 N 1220.91 -1.05686 1.16912 0
M  V30 12889 C 1222.14 -1.82018 0.977392 0
M  V30 12890 C 1222.55 -1.83072 -0.477636 0
M  V30 12891 O 1221.89 -1.25296 -1.34338 0
M  V30 12892 C 1221.95 -3.29592 1.4356 0
M  V30 12893 C 1221.62 -3.5223 2.91175 0
M  V30 12894 C 1222.61 -3.44767 3.89142 0
M  V30 12895 C 1220.3 -3.79353 3.29236 0
M  V30 12896 C 1222.29 -3.64104 5.2317 0
M  V30 12897 C 1219.98 -3.98339 4.63432 0
M  V30 12898 C 1220.98 -3.90713 5.60207 0
M  V30 12899 O 1220.67 -4.09175 6.91976 0
M  V30 12900 H 1220.4 -0.580578 0.346273 0
M  V30 12901 H 1222.95 -1.34199 1.55498 0
M  V30 12902 H 1221.18 -3.78302 0.80153 0
M  V30 12903 H 1222.87 -3.87435 1.21032 0
M  V30 12904 H 1223.64 -3.23796 3.61083 0
M  V30 12905 H 1219.52 -3.84395 2.54482 0
M  V30 12906 H 1223.06 -3.58068 5.98693 0
M  V30 12907 H 1218.96 -4.18801 4.91198 0
M  V30 12908 H 1219.73 -4.26429 6.98642 0
M  V30 12909 N 1222.39 -0.968567 -1.24324 0
M  V30 12910 C 1223.32 -0.457247 -2.24593 0
M  V30 12911 C 1224.33 0.434483 -1.56895 0
M  V30 12912 O 1225.52 0.240519 -1.76872 0
M  V30 12913 C 1222.62 0.359086 -3.36992 0
M  V30 12914 C 1221.8 -0.522945 -4.34263 0
M  V30 12915 C 1220.85 0.237528 -5.25664 0
M  V30 12916 O 1219.88 -0.368835 -5.68004 0
M  V30 12917 N 1221.08 1.52686 -5.6006 0
M  V30 12918 H 1223.85 -1.31934 -2.69098 0
M  V30 12919 H 1221.41 -0.840488 -1.38374 0
M  V30 12920 H 1223.4 0.87589 -3.95108 0
M  V30 12921 H 1221.97 1.12212 -2.91766 0
M  V30 12922 H 1221.19 -1.22071 -3.74823 0
M  V30 12923 H 1222.48 -1.12447 -4.96219 0
M  V30 12924 H 1221.88 2.0412 -5.2759 0
M  V30 12925 H 1220.43 1.98934 -6.207 0
M  V30 12926 N 1223.87 1.39211 -0.738786 0
M  V30 12927 C 1225.28 1.54116 -0.414773 0
M  V30 12928 C 1225.48 1.70497 1.07392 0
M  V30 12929 O 1224.54 1.7076 1.86003 0
M  V30 12930 C 1225.85 2.7567 -1.2011 0
M  V30 12931 C 1227.4 2.89508 -1.1897 0
M  V30 12932 C 1227.87 4.14005 -1.95868 0
M  V30 12933 N 1229.37 4.21052 -1.93053 0
M  V30 12934 C 1230.1 5.16341 -2.49358 0
M  V30 12935 N 1229.6 6.17396 -3.14316 0
M  V30 12936 N 1231.39 5.08585 -2.3937 0
M  V30 12937 H 1223.54 1.26827 -1.70378 0
M  V30 12938 H 1225.8 0.614983 -0.721457 0
M  V30 12939 H 1225.51 2.69922 -2.25467 0
M  V30 12940 H 1225.38 3.68443 -0.808065 0
M  V30 12941 H 1227.77 2.94747 -0.144248 0
M  V30 12942 H 1227.85 1.97788 -1.62214 0
M  V30 12943 H 1227.5 4.09527 -3.00416 0
M  V30 12944 H 1227.43 5.04776 -1.50028 0
M  V30 12945 H 1229.92 3.48669 -1.45733 0
M  V30 12946 H 1230.23 6.86572 -3.54737 0
M  V30 12947 H 1228.57 6.17772 -3.18407 0
M  V30 12948 H 1231.77 4.28573 -1.88262 0
M  V30 12949 H 1231.94 5.8267 -2.83549 0
M  V30 12950 N 1225.34 0.486708 1.49896 0
M  V30 12951 C 1226.28 -0.335809 2.26727 0
M  V30 12952 C 1227.29 -0.94333 1.32684 0
M  V30 12953 O 1228.48 -0.82909 1.58077 0
M  V30 12954 C 1225.58 -1.48642 3.04563 0
M  V30 12955 C 1224.75 -0.988837 4.26076 0
M  V30 12956 C 1223.81 -2.01535 4.86076 0
M  V30 12957 O 1222.84 -1.58966 5.46552 0
M  V30 12958 N 1224.04 -3.34471 4.74457 0
M  V30 12959 H 1226.8 0.322919 2.97955 0
M  V30 12960 H 1224.36 0.318403 1.58738 0
M  V30 12961 H 1226.36 -2.17039 3.41579 0
M  V30 12962 H 1224.93 -2.04956 2.36033 0
M  V30 12963 H 1224.15 -0.130232 3.93985 0
M  V30 12964 H 1225.43 -0.634562 5.04827 0
M  V30 12965 H 1224.83 -3.71755 4.26398 0
M  V30 12966 H 1223.39 -3.98621 5.15698 0
M  V30 12967 N 1226.82 -1.56058 0.219941 0
M  V30 12968 C 1227.77 -2.16853 -0.704185 0
M  V30 12969 C 1228.76 -1.11639 -1.15869 0
M  V30 12970 O 1229.95 -1.37632 -1.11295 0
M  V30 12971 C 1227.08 -2.85073 -1.9128 0
M  V30 12972 C 1226.16 -3.9751 -1.47805 0
M  V30 12973 N 1226.56 -5.00121 -0.755792 0
M  V30 12974 C 1224.85 -4.0957 -1.76546 0
M  V30 12975 C 1225.55 -5.79241 -0.534332 0
M  V30 12976 N 1224.53 -5.32549 -1.09055 0
M  V30 12977 H 1228.33 -2.93547 -0.143914 0
M  V30 12978 H 1225.85 -1.62386 0.021133 0
M  V30 12979 H 1227.84 -3.27037 -2.58558 0
M  V30 12980 H 1226.5 -2.09874 -2.47756 0
M  V30 12981 H 1227.51 -5.16285 -0.408647 0
M  V30 12982 H 1224.19 -3.45521 -2.34353 0
M  V30 12983 H 1225.58 -6.71888 0.0404032 0
M  V30 12984 N 1228.3 0.053464 -1.57509 0
M  V30 12985 C 1229.72 0.408651 -1.5428 0
M  V30 12986 C 1229.92 1.78086 -0.942735 0
M  V30 12987 O 1228.97 2.46366 -0.553163 0
M  V30 12988 C 1230.29 0.332884 -2.98852 0
M  V30 12989 C 1231.83 0.411745 -3.1028 0
M  V30 12990 C 1232.31 0.365691 -4.56538 0
M  V30 12991 N 1233.8 0.425222 -4.61244 0
M  V30 12992 C 1234.54 0.412093 -5.71917 0
M  V30 12993 N 1234.03 0.352693 -6.91902 0
M  V30 12994 N 1235.82 0.460016 -5.60214 0
M  V30 12995 H 1227.98 -0.844834 -1.94875 0
M  V30 12996 H 1230.24 -0.318888 -0.892757 0
M  V30 12997 H 1229.94 -0.609116 -3.46385 0
M  V30 12998 H 1229.82 1.13605 -3.59686 0
M  V30 12999 H 1232.21 1.34417 -2.62709 0
M  V30 13000 H 1232.29 -0.420333 -2.52323 0
M  V30 13001 H 1231.93 -0.562963 -5.0477 0
M  V30 13002 H 1231.86 1.21555 -5.12379 0
M  V30 13003 H 1234.35 0.474634 -3.74908 0
M  V30 13004 H 1234.66 0.347105 -7.7202 0
M  V30 13005 H 1233.01 0.319104 -6.94267 0
M  V30 13006 H 1236.2 0.504242 -4.65376 0
M  V30 13007 H 1236.37 0.446315 -6.46461 0
M  V30 13008 N 1229.78 1.54207 0.325255 0
M  V30 13009 C 1230.71 1.86467 1.40543 0
M  V30 13010 C 1231.69 0.721324 1.54048 0
M  V30 13011 O 1232.88 0.974905 1.67956 0
M  V30 13012 C 1230.01 2.09052 2.77335 0
M  V30 13013 C 1228.96 3.24893 2.78619 0
M  V30 13014 C 1228.29 3.32846 4.1847 0
M  V30 13015 C 1229.59 4.62582 2.42518 0
M  V30 13016 H 1231.28 2.76932 1.13794 0
M  V30 13017 H 1228.83 1.33248 0.545971 0
M  V30 13018 H 1230.78 2.30204 3.52964 0
M  V30 13019 H 1229.5 1.15335 3.05558 0
M  V30 13020 H 1228.16 3.03625 2.05444 0
M  V30 13021 H 1227.81 2.3669 4.43832 0
M  V30 13022 H 1227.51 4.10701 4.20237 0
M  V30 13023 H 1229.03 3.56231 4.95915 0
M  V30 13024 H 1230.45 4.83627 3.07861 0
M  V30 13025 H 1228.84 5.42974 2.55538 0
M  V30 13026 H 1229.91 4.64946 1.3767 0
M  V30 13027 N 1231.26 -0.58723 1.46251 0
M  V30 13028 C 1232.67 -1.16933 1.45546 0
M  V30 13029 C 1233.02 -1.9524 0.193879 0
M  V30 13030 O 1232.14 -2.04652 -0.70332 0
M  V30 13031 C 1232.74 -2.12723 2.63693 0
M  V30 13032 C 1231.3 -2.66267 2.66043 0
M  V30 13033 C 1230.45 -1.42051 2.38153 0
M  V30 13034 H 1233.4 -0.375411 1.54196 0
M  V30 13035 H 1233.42 -2.96111 2.38953 0
M  V30 13036 H 1232.93 -1.55703 3.55497 0
M  V30 13037 H 1231.03 -3.2717 1.783 0
M  V30 13038 H 1231.14 -3.0931 3.65874 0
M  V30 13039 H 1229.51 -1.71707 1.88119 0
M  V30 13040 H 1230.29 -0.868675 3.32128 0
M  V30 13041 N 1232.74 -1.33881 -0.831482 0
M  V30 13042 C 1233.65 -1.26802 -1.97379 0
M  V30 13043 C 1234.66 -0.177233 -1.73095 0
M  V30 13044 O 1235.84 -0.402163 -1.97344 0
M  V30 13045 C 1232.9 -1.01474 -3.31517 0
M  V30 13046 C 1231.96 -2.19626 -3.68867 0
M  V30 13047 C 1231.2 -1.95497 -4.96605 0
M  V30 13048 O 1231.42 -0.908948 -5.63111 0
M  V30 13049 O 1230.35 -2.82226 -5.31632 0
M  V30 13050 H 1234.18 -2.22883 -2.06293 0
M  V30 13051 H 1231.76 -1.14001 -0.965613 0
M  V30 13052 H 1233.65 -0.890954 -4.11874 0
M  V30 13053 H 1232.32 -0.0842656 -3.2359 0
M  V30 13054 H 1231.23 -2.37561 -2.88991 0
M  V30 13055 H 1232.56 -3.11034 -3.81469 0
M  V30 13056 N 1234.21 1.05064 -1.1747 0
M  V30 13057 C 1235.62 1.59547 -0.969628 0
M  V30 13058 C 1235.98 1.90153 0.483332 0
M  V30 13059 O 1235.1 1.68415 1.35887 0
M  V30 13060 C 1235.7 2.89877 -1.75377 0
M  V30 13061 C 1234.25 3.41013 -1.59332 0
M  V30 13062 C 1233.4 2.1473 -1.7546 0
M  V30 13063 H 1236.35 0.878595 -1.3216 0
M  V30 13064 H 1236.37 3.59834 -1.23691 0
M  V30 13065 H 1235.89 2.67569 -2.8112 0
M  V30 13066 H 1233.99 3.68355 -0.560827 0
M  V30 13067 H 1234.1 4.15512 -2.38509 0
M  V30 13068 H 1232.46 2.25553 -1.18313 0
M  V30 13069 H 1233.25 1.9489 -2.82618 0
M  V30 13070 N 1235.69 0.975146 1.23809 0
M  V30 13071 C 1236.92 0.658605 1.96665 0
M  V30 13072 C 1237.34 -0.766744 1.71763 0
M  V30 13073 O 1236.7 -1.52151 0.985887 0
M  V30 13074 C 1236.75 0.948438 3.47904 0
M  V30 13075 O 1235.85 0.0377241 4.12383 0
M  V30 13076 H 1235.19 0.248231 0.615855 0
M  V30 13077 H 1237.72 1.30732 1.57386 0
M  V30 13078 H 1237.73 0.883 3.9833 0
M  V30 13079 H 1236.41 1.98717 3.65355 0
M  V30 13080 H 1234.98 0.157122 3.72569 0
M  V30 13081 N 1237.17 -1.38817 0.746158 0
M  V30 13082 C 1238.41 -2.02129 0.303843 0
M  V30 13083 C 1238.77 -1.57943 -1.0917 0
M  V30 13084 O 1239.97 -2.13532 -1.63272 0
M  V30 13085 C 1238.25 -3.5499 0.414379 0
M  V30 13086 S 1239.8 -4.38767 0.0535495 0
M  V30 13087 H 1236.62 -0.701084 0.118329 0
M  V30 13088 H 1239.22 -1.69444 0.975137 0
M  V30 13089 H 1237.93 -3.84638 1.43114 0
M  V30 13090 H 1237.46 -3.92442 -0.274355 0
M  V30 13091 H 1239.47 -4.82469 -1.15921 0
M  V30 13092 N 1238.65 -0.49465 -1.49636 0
M  V30 13093 C 1240.06 -0.0452894 -1.86645 0
M  V30 13094 C 1240.41 1.36686 -1.40753 0
M  V30 13095 O 1239.53 2.01751 -0.78265 0
M  V30 13096 C 1240.13 -0.0754115 -3.38716 0
M  V30 13097 C 1238.69 0.318579 -3.75049 0
M  V30 13098 C 1237.84 -0.450712 -2.73613 0
M  V30 13099 H 1240.79 -0.707758 -1.42044 0
M  V30 13100 H 1240.81 0.721372 -3.73599 0
M  V30 13101 H 1240.32 -1.10331 -3.72087 0
M  V30 13102 H 1238.42 1.34995 -3.47285 0
M  V30 13103 H 1238.53 0.00354416 -4.791 0
M  V30 13104 H 1236.9 0.0986455 -2.54509 0
M  V30 13105 H 1237.68 -1.47857 -3.09828 0
M  V30 13106 N 1240.13 1.55939 -0.228214 0
M  V30 13107 C 1241.06 2.17874 0.711589 0
M  V30 13108 C 1242.07 1.14969 1.15265 0
M  V30 13109 O 1243.26 1.41919 1.08265 0
M  V30 13110 C 1240.36 2.75294 1.97652 0
M  V30 13111 C 1239.53 4.03435 1.68994 0
M  V30 13112 C 1238.59 4.45354 2.8026 0
M  V30 13113 O 1237.62 5.12117 2.48445 0
M  V30 13114 N 1238.82 4.11588 4.0936 0
M  V30 13115 H 1241.58 2.99148 0.181757 0
M  V30 13116 H 1239.15 1.6183 -0.0474567 0
M  V30 13117 H 1241.14 3.00305 2.71292 0
M  V30 13118 H 1239.71 1.98285 2.41665 0
M  V30 13119 H 1238.93 3.8621 0.789657 0
M  V30 13120 H 1240.22 4.87015 1.47287 0
M  V30 13121 H 1239.61 3.57953 4.38048 0
M  V30 13122 H 1238.17 4.41477 4.79522 0
M  V30 13123 N 1241.6 -0.0451101 1.57535 0
M  V30 13124 C 1242.53 -1.05046 2.08537 0
M  V30 13125 C 1243.52 -1.3872 0.984418 0
M  V30 13126 O 1244.7 -1.47884 1.25873 0
M  V30 13127 C 1241.83 -2.3562 2.55148 0
M  V30 13128 C 1240.78 -2.16231 3.69362 0
M  V30 13129 C 1240.11 -3.52423 4.02122 0
M  V30 13130 C 1241.41 -1.56159 4.98409 0
M  V30 13131 H 1243.1 -0.625965 2.92783 0
M  V30 13132 H 1240.65 -0.299657 1.40848 0
M  V30 13133 H 1242.6 -3.06266 2.89446 0
M  V30 13134 H 1241.33 -2.80099 1.67964 0
M  V30 13135 H 1239.99 -1.4802 3.35389 0
M  V30 13136 H 1239.63 -3.94522 3.12028 0
M  V30 13137 H 1239.33 -3.4028 4.79044 0
M  V30 13138 H 1240.86 -4.24458 4.38939 0
M  V30 13139 H 1242.27 -2.16703 5.30766 0
M  V30 13140 H 1240.67 -1.54638 5.79834 0
M  V30 13141 H 1241.74 -0.525698 4.82042 0
M  V30 13142 N 1243.08 -1.54377 -0.317073 0
M  V30 13143 C 1244.05 -1.83488 -1.37349 0
M  V30 13144 C 1245.05 -0.706981 -1.44424 0
M  V30 13145 O 1246.24 -0.975289 -1.44339 0
M  V30 13146 C 1243.37 -2.00074 -2.76013 0
M  V30 13147 H 1244.56 -2.77883 -1.12789 0
M  V30 13148 H 1242.11 -1.46194 -0.552902 0
M  V30 13149 H 1242.85 -1.07913 -3.05819 0
M  V30 13150 H 1242.63 -2.82155 -2.7227 0
M  V30 13151 H 1244.12 -2.24022 -3.52426 0
M  V30 13152 N 1244.56 0.579466 -1.4656 0
M  V30 13153 C 1245.79 1.36351 -1.55615 0
M  V30 13154 C 1246.2 1.87755 -0.198405 0
M  V30 13155 O 1245.56 1.63795 0.804834 0
M  V30 13156 C 1245.61 2.54881 -2.56355 0
M  V30 13157 O 1245.33 2.05607 -3.86856 0
M  V30 13158 C 1246.83 3.47391 -2.75381 0
M  V30 13159 H 1244.05 0.416426 -0.526147 0
M  V30 13160 H 1246.6 0.704134 -1.91995 0
M  V30 13161 H 1244.75 3.16802 -2.2297 0
M  V30 13162 H 1245.17 2.82823 -4.41714 0
M  V30 13163 H 1246.64 4.27031 -3.49783 0
M  V30 13164 H 1247.12 3.99532 -1.82403 0
M  V30 13165 H 1247.72 2.91303 -3.09875 0
M  V30 13166 N 1246.04 1.3432 0.824371 0
M  V30 13167 C 1246.97 1.2842 1.95014 0
M  V30 13168 C 1247.95 0.161925 1.69328 0
M  V30 13169 O 1249.13 0.354052 1.90945 0
M  V30 13170 C 1246.26 1.03741 3.31444 0
M  V30 13171 C 1245.22 2.12419 3.71567 0
M  V30 13172 C 1244.54 1.72931 5.05963 0
M  V30 13173 C 1245.84 3.54235 3.83817 0
M  V30 13174 H 1247.54 2.22614 2.00209 0
M  V30 13175 H 1245.08 1.07165 0.961856 0
M  V30 13176 H 1247.04 0.982586 4.09784 0
M  V30 13177 H 1245.76 0.0598892 3.26545 0
M  V30 13178 H 1244.42 2.16968 2.955 0
M  V30 13179 H 1244.07 0.738433 4.9755 0
M  V30 13180 H 1243.77 2.45668 5.3378 0
M  V30 13181 H 1245.29 1.68941 5.86763 0
M  V30 13182 H 1246.71 3.52106 4.52432 0
M  V30 13183 H 1245.1 4.25581 4.23085 0
M  V30 13184 H 1246.17 3.91682 2.85856 0
M  V30 13185 N 1247.52 -1.0444 1.18026 0
M  V30 13186 C 1248.74 -1.81234 0.998089 0
M  V30 13187 C 1249.16 -1.83271 -0.453559 0
M  V30 13188 O 1248.52 -1.26545 -1.31502 0
M  V30 13189 C 1248.57 -3.27007 1.54106 0
M  V30 13190 O 1248.29 -3.25174 2.93587 0
M  V30 13191 C 1249.79 -4.20461 1.40455 0
M  V30 13192 H 1247.01 -0.57085 0.352663 0
M  V30 13193 H 1249.55 -1.31649 1.56489 0
M  V30 13194 H 1247.71 -3.73837 1.01611 0
M  V30 13195 H 1248.12 -4.16466 3.18836 0
M  V30 13196 H 1249.6 -5.20695 1.83249 0
M  V30 13197 H 1250.07 -4.37781 0.352713 0
M  V30 13198 H 1250.68 -3.79493 1.92004 0
M  V30 13199 N 1248.99 -0.981699 -1.2329 0
M  V30 13200 C 1250.22 -0.669025 -1.96313 0
M  V30 13201 C 1250.64 0.757624 -1.72168 0
M  V30 13202 O 1250 1.51626 -0.993942 0
M  V30 13203 C 1250.05 -0.966875 -3.47396 0
M  V30 13204 O 1249.15 -0.0595933 -4.12357 0
M  V30 13205 H 1248.5 -0.251493 -0.61453 0
M  V30 13206 H 1251.03 -1.31564 -1.56691 0
M  V30 13207 H 1251.04 -0.904112 -3.97857 0
M  V30 13208 H 1249.71 -2.00651 -3.64296 0
M  V30 13209 H 1248.29 -0.176878 -3.7248 0
M  V30 13210 N 1250.47 1.3842 -0.753509 0
M  V30 13211 C 1251.4 2.29039 -0.0859463 0
M  V30 13212 C 1252.42 1.47742 0.68383 0
M  V30 13213 O 1253.61 1.70607 0.524933 0
M  V30 13214 C 1250.71 3.26668 0.902296 0
M  V30 13215 C 1249.88 4.36986 0.190178 0
M  V30 13216 C 1248.94 5.14805 1.08916 0
M  V30 13217 O 1247.96 5.66441 0.559715 0
M  V30 13218 N 1249.17 5.27777 2.41726 0
M  V30 13219 H 1251.93 2.8697 -0.864196 0
M  V30 13220 H 1249.49 1.502 -0.604288 0
M  V30 13221 H 1251.48 3.75606 1.50672 0
M  V30 13222 H 1250.05 2.69636 1.58163 0
M  V30 13223 H 1249.27 3.89684 -0.594959 0
M  V30 13224 H 1250.56 5.07899 -0.302594 0
M  V30 13225 H 1249.96 4.87376 2.87196 0
M  V30 13226 H 1248.52 5.8009 2.97219 0
M  V30 13227 N 1251.95 0.502579 1.49372 0
M  V30 13228 C 1253.19 -0.0397257 2.04361 0
M  V30 13229 C 1253.55 -1.34131 1.37379 0
M  V30 13230 O 1254.76 -1.96795 1.83099 0
M  V30 13231 C 1253.03 -0.187322 3.56909 0
M  V30 13232 S 1254.59 -0.683647 4.33442 0
M  V30 13233 H 1251.4 -0.00102134 0.710999 0
M  V30 13234 H 1254.01 0.676905 1.83407 0
M  V30 13235 H 1252.71 0.765255 4.03202 0
M  V30 13236 H 1252.24 -0.929146 3.8227 0
M  V30 13237 H 1254.26 -1.95255 4.56169 0
M  V30 13238 N 1253.43 -1.55816 0.23648 0
M  V30 13239 C 1254.36 -2.23924 -0.661834 0
M  V30 13240 C 1255.34 -1.21597 -1.18946 0
M  V30 13241 O 1256.52 -1.50222 -1.23073 0
M  V30 13242 C 1253.65 -2.93069 -1.86355 0
M  V30 13243 C 1252.61 -4.01996 -1.46913 0
M  V30 13244 C 1251.93 -4.58512 -2.75083 0
M  V30 13245 C 1253.23 -5.18265 -0.647964 0
M  V30 13246 H 1254.93 -2.99253 -0.0939368 0
M  V30 13247 H 1252.47 -1.43934 -0.0437407 0
M  V30 13248 H 1254.43 -3.39412 -2.49755 0
M  V30 13249 H 1253.15 -2.15212 -2.45665 0
M  V30 13250 H 1251.81 -3.56406 -0.858522 0
M  V30 13251 H 1251.46 -3.77368 -3.3257 0
M  V30 13252 H 1251.16 -5.32037 -2.49421 0
M  V30 13253 H 1252.68 -5.07583 -3.39399 0
M  V30 13254 H 1254.1 -5.60898 -1.18602 0
M  V30 13255 H 1252.49 -5.98114 -0.487823 0
M  V30 13256 H 1253.56 -4.83691 0.342151 0
M  V30 13257 N 1254.91 0.036755 -1.57557 0
M  V30 13258 C 1256.13 0.741086 -1.93172 0
M  V30 13259 C 1256.55 1.69303 -0.835589 0
M  V30 13260 O 1255.91 1.81523 0.1886 0
M  V30 13261 C 1255.96 1.50477 -3.28693 0
M  V30 13262 O 1255.68 0.591046 -4.34095 0
M  V30 13263 C 1257.18 2.30695 -3.78543 0
M  V30 13264 H 1254.4 0.208731 -0.637709 0
M  V30 13265 H 1256.94 -0.00342776 -2.045 0
M  V30 13266 H 1255.1 2.20123 -3.18786 0
M  V30 13267 H 1255.51 1.12579 -5.12276 0
M  V30 13268 H 1256.99 2.79685 -4.759 0
M  V30 13269 H 1257.46 3.11778 -3.0934 0
M  V30 13270 H 1258.07 1.66138 -3.91508 0
M  V30 13271 N 1256.39 1.54543 0.308881 0
M  V30 13272 C 1257.62 1.77174 1.06268 0
M  V30 13273 C 1258.02 0.527461 1.81699 0
M  V30 13274 O 1257.37 -0.512027 1.7642 0
M  V30 13275 C 1257.43 2.92115 2.09545 0
M  V30 13276 C 1257.09 4.30492 1.5338 0
M  V30 13277 C 1258.09 5.1081 0.967923 0
M  V30 13278 C 1255.77 4.77074 1.5718 0
M  V30 13279 C 1257.77 6.35827 0.447517 0
M  V30 13280 C 1255.46 6.02055 1.04753 0
M  V30 13281 C 1256.45 6.81266 0.486345 0
M  V30 13282 O 1256.14 8.03894 -0.0300055 0
M  V30 13283 H 1255.87 0.594773 0.321281 0
M  V30 13284 H 1258.43 2.02289 0.356136 0
M  V30 13285 H 1256.66 2.62606 2.83857 0
M  V30 13286 H 1258.35 3.02394 2.70763 0
M  V30 13287 H 1259.11 4.7597 0.931523 0
M  V30 13288 H 1254.99 4.15453 1.998 0
M  V30 13289 H 1258.54 6.97599 0.00884212 0
M  V30 13290 H 1254.43 6.36383 1.08105 0
M  V30 13291 H 1255.2 8.18457 0.0840381 0
M  V30 13292 N 1257.86 -0.571685 1.46866 0
M  V30 13293 C 1258.77 -1.70758 1.60869 0
M  V30 13294 C 1259.79 -1.66903 0.49186 0
M  V30 13295 O 1260.97 -1.86613 0.757468 0
M  V30 13296 C 1258.03 -3.07267 1.60586 0
M  V30 13297 C 1257.09 -3.22301 2.83585 0
M  V30 13298 C 1256.32 -4.52298 2.83306 0
M  V30 13299 O 1256.55 -5.36869 1.92685 0
M  V30 13300 O 1255.48 -4.70814 3.7499 0
M  V30 13301 H 1259.31 -1.6189 2.56954 0
M  V30 13302 H 1256.89 -0.740018 1.29785 0
M  V30 13303 H 1258.77 -3.8853 1.63163 0
M  V30 13304 H 1257.45 -3.16549 0.676637 0
M  V30 13305 H 1256.36 -2.4049 2.86558 0
M  V30 13306 H 1257.69 -3.17916 3.75753 0
M  V30 13307 N 1259.34 -1.34755 -0.817236 0
M  V30 13308 C 1260.75 -1.24594 -1.39044 0
M  V30 13309 C 1261.1 0.126184 -1.95794 0
M  V30 13310 O 1260.23 1.02675 -1.90491 0
M  V30 13311 C 1260.82 -2.25592 -2.52772 0
M  V30 13312 C 1259.38 -2.19204 -3.05984 0
M  V30 13313 C 1258.53 -2.11884 -1.78886 0
M  V30 13314 H 1261.48 -1.46039 -0.621155 0
M  V30 13315 H 1261.5 -1.87622 -3.31026 0
M  V30 13316 H 1261.01 -3.25447 -2.11438 0
M  V30 13317 H 1259.11 -1.22725 -3.51809 0
M  V30 13318 H 1259.23 -3.10707 -3.64689 0
M  V30 13319 H 1257.59 -1.57694 -2.00012 0
M  V30 13320 H 1258.37 -3.13582 -1.39719 0
M  V30 13321 N 1260.82 1.03812 -1.18578 0
M  V30 13322 C 1262.05 1.80702 -1.00769 0
M  V30 13323 C 1262.46 1.83509 0.443833 0
M  V30 13324 O 1261.82 1.2724 1.30829 0
M  V30 13325 C 1261.87 3.26185 -1.55838 0
M  V30 13326 O 1261.59 3.23612 -2.95308 0
M  V30 13327 C 1263.09 4.1971 -1.42682 0
M  V30 13328 H 1260.31 0.568972 -0.355685 0
M  V30 13329 H 1262.86 1.30817 -1.57185 0
M  V30 13330 H 1261.01 3.73293 -1.03592 0
M  V30 13331 H 1261.43 4.14769 -3.2104 0
M  V30 13332 H 1262.9 5.19716 -1.86008 0
M  V30 13333 H 1263.38 4.37588 -0.375924 0
M  V30 13334 H 1263.98 3.78469 -1.94013 0
M  V30 13335 N 1262.3 0.988223 1.22768 0
M  V30 13336 C 1263.23 0.492919 2.23837 0
M  V30 13337 C 1264.24 -0.409467 1.57567 0
M  V30 13338 O 1265.43 -0.21235 1.77232 0
M  V30 13339 C 1262.53 -0.305428 3.37521 0
M  V30 13340 C 1261.7 0.591966 4.33376 0
M  V30 13341 C 1260.76 -0.15387 5.25975 0
M  V30 13342 O 1259.79 0.459153 5.67345 0
M  V30 13343 N 1260.99 -1.43756 5.62418 0
M  V30 13344 H 1263.76 1.36199 2.66965 0
M  V30 13345 H 1261.32 0.862395 1.3702 0
M  V30 13346 H 1263.31 -0.812921 3.96451 0
M  V30 13347 H 1261.88 -1.07556 2.93514 0
M  V30 13348 H 1261.1 1.28019 3.72833 0
M  V30 13349 H 1262.39 1.20327 4.94367 0
M  V30 13350 H 1261.79 -1.95701 5.30771 0
M  V30 13351 H 1260.34 -1.89034 6.23786 0
M  V30 13352 N 1263.78 -1.38018 0.760839 0
M  V30 13353 C 1265.19 -1.53437 0.439239 0
M  V30 13354 C 1265.39 -1.72184 -1.04666 0
M  V30 13355 O 1264.45 -1.73698 -1.83263 0
M  V30 13356 C 1265.76 -2.73724 1.24481 0
M  V30 13357 C 1267.31 -2.87579 1.23561 0
M  V30 13358 C 1267.78 -4.10836 2.02429 0
M  V30 13359 N 1269.27 -4.17928 1.99727 0
M  V30 13360 C 1270.01 -5.12309 2.57541 0
M  V30 13361 N 1269.51 -6.12317 3.24098 0
M  V30 13362 N 1271.3 -5.04712 2.47431 0
M  V30 13363 H 1263.45 -1.241 1.72375 0
M  V30 13364 H 1265.71 -0.603427 0.73115 0
M  V30 13365 H 1265.42 -2.663 2.29732 0
M  V30 13366 H 1265.29 -3.67111 0.866579 0
M  V30 13367 H 1267.68 -2.9448 0.191122 0
M  V30 13368 H 1267.76 -1.95183 1.6534 0
M  V30 13369 H 1267.4 -4.04696 3.06893 0
M  V30 13370 H 1267.33 -5.02326 1.58039 0
M  V30 13371 H 1269.83 -3.46307 1.51262 0
M  V30 13372 H 1270.14 -6.80842 3.65615 0
M  V30 13373 H 1268.48 -6.12628 3.28195 0
M  V30 13374 H 1271.67 -4.25524 1.95057 0
M  V30 13375 H 1271.85 -5.78085 2.92783 0
M  V30 13376 N 1265.25 -0.510493 -1.49103 0
M  V30 13377 C 1266.66 -0.0650831 -1.86587 0
M  V30 13378 C 1267.02 1.35185 -1.42195 0
M  V30 13379 O 1266.14 2.0091 -0.804004 0
M  V30 13380 C 1266.74 -0.111333 -3.38617 0
M  V30 13381 C 1265.29 0.278782 -3.75366 0
M  V30 13382 C 1264.44 -0.479707 -2.73119 0
M  V30 13383 H 1267.39 -0.722784 -1.41285 0
M  V30 13384 H 1267.41 0.681706 -3.74343 0
M  V30 13385 H 1266.93 -1.14271 -3.70896 0
M  V30 13386 H 1265.03 1.31304 -3.48698 0
M  V30 13387 H 1265.14 -0.047271 -4.79077 0
M  V30 13388 H 1263.5 0.0716459 -2.54599 0
M  V30 13389 H 1264.29 -1.51135 -3.08242 0
M  V30 13390 N 1266.73 1.55688 -0.24474 0
M  V30 13391 C 1267.96 2.03743 0.387776 0
M  V30 13392 C 1268.38 1.1229 1.50906 0
M  V30 13393 O 1267.74 0.115445 1.80932 0
M  V30 13394 C 1267.79 3.49825 0.874927 0
M  V30 13395 O 1266.89 3.61504 1.98466 0
M  V30 13396 H 1266.23 0.658561 0.0848107 0
M  V30 13397 H 1268.76 2.01224 -0.370165 0
M  V30 13398 H 1268.77 3.90603 1.17871 0
M  V30 13399 H 1267.45 4.15864 0.0543852 0
M  V30 13400 H 1266.02 3.32622 1.68574 0
M  V30 13401 N 1268.21 -0.0283989 1.57574 0
M  V30 13402 C 1269.46 -0.719077 1.89303 0
M  V30 13403 C 1269.78 -1.75325 0.84211 0
M  V30 13404 O 1269.04 -1.95071 -0.15683 0
M  V30 13405 C 1269.34 -1.4247 3.27776 0
M  V30 13406 C 1269 -0.526442 4.47816 0
M  V30 13407 C 1267.67 -0.279038 4.8039 0
M  V30 13408 C 1270.02 0.0937038 5.21116 0
M  V30 13409 C 1267.35 0.597277 5.83652 0
M  V30 13410 C 1269.7 0.957725 6.25308 0
M  V30 13411 C 1268.36 1.21458 6.56357 0
M  V30 13412 H 1267.63 -0.263129 0.692708 0
M  V30 13413 H 1270.28 0.0210252 1.91488 0
M  V30 13414 H 1268.58 -2.23813 3.21582 0
M  V30 13415 H 1270.28 -1.96466 3.49574 0
M  V30 13416 H 1266.87 -0.729426 4.22347 0
M  V30 13417 H 1271.06 -0.084469 4.96228 0
M  V30 13418 H 1266.31 0.804582 6.06083 0
M  V30 13419 H 1270.49 1.44476 6.81249 0
M  V30 13420 H 1268.11 1.89534 7.36193 0
M  V30 13421 N 1269.69 -1.54705 -0.300681 0
M  V30 13422 C 1271.1 -1.45926 -0.646359 0
M  V30 13423 C 1271.3 -0.65072 -1.90704 0
M  V30 13424 O 1270.36 -0.158547 -2.52002 0
M  V30 13425 C 1271.67 -2.89889 -0.799059 0
M  V30 13426 C 1273.22 -2.99934 -0.894923 0
M  V30 13427 C 1273.7 -4.45093 -1.07962 0
M  V30 13428 N 1275.19 -4.48804 -1.14581 0
M  V30 13429 C 1275.92 -5.58305 -1.30702 0
M  V30 13430 N 1275.42 -6.77729 -1.43719 0
M  V30 13431 N 1277.21 -5.45994 -1.33593 0
M  V30 13432 H 1269.36 -2.05742 0.527617 0
M  V30 13433 H 1271.62 -0.931817 0.174415 0
M  V30 13434 H 1271.33 -3.51655 0.0563954 0
M  V30 13435 H 1271.2 -3.37325 -1.68796 0
M  V30 13436 H 1273.59 -2.38281 -1.74086 0
M  V30 13437 H 1273.67 -2.55794 0.0179973 0
M  V30 13438 H 1273.32 -5.0734 -0.238444 0
M  V30 13439 H 1273.25 -4.86864 -2.00677 0
M  V30 13440 H 1275.74 -3.62766 -1.05874 0
M  V30 13441 H 1276.05 -7.56937 -1.55776 0
M  V30 13442 H 1274.4 -6.80594 -1.40774 0
M  V30 13443 H 1277.59 -4.51641 -1.23035 0
M  V30 13444 H 1277.76 -6.31381 -1.45813 0
M  V30 13445 N 1271.17 0.563888 -1.47167 0
M  V30 13446 C 1272.39 1.34693 -1.57052 0
M  V30 13447 C 1272.81 1.87534 -0.218308 0
M  V30 13448 O 1272.17 1.64639 0.787416 0
M  V30 13449 C 1272.22 2.52148 -2.59044 0
M  V30 13450 O 1271.94 2.01492 -3.89015 0
M  V30 13451 C 1273.44 3.4445 -2.7905 0
M  V30 13452 H 1270.66 0.410822 -0.530534 0
M  V30 13453 H 1273.2 0.683731 -1.92731 0
M  V30 13454 H 1271.36 3.14419 -2.26317 0
M  V30 13455 H 1271.77 2.78122 -4.44689 0
M  V30 13456 H 1273.25 4.23297 -3.54293 0
M  V30 13457 H 1273.72 3.97575 -1.86631 0
M  V30 13458 H 1274.33 2.88 -3.12948 0
M  V30 13459 N 1272.64 1.35187 0.810078 0
M  V30 13460 C 1273.89 1.27602 1.56207 0
M  V30 13461 C 1274.21 -0.148621 1.95035 0
M  V30 13462 O 1275.41 -0.346721 2.69277 0
M  V30 13463 C 1273.87 2.23759 2.81886 0
M  V30 13464 C 1273.48 3.71549 2.5031 0
M  V30 13465 C 1275.22 2.25109 3.59898 0
M  V30 13466 C 1273.13 4.5954 3.7226 0
M  V30 13467 H 1272.06 0.474078 0.586316 0
M  V30 13468 H 1274.71 1.6043 0.890759 0
M  V30 13469 H 1273.09 1.83898 3.5071 0
M  V30 13470 H 1274.26 4.20025 1.89515 0
M  V30 13471 H 1272.58 3.72773 1.85551 0
M  V30 13472 H 1275.18 2.88066 4.50469 0
M  V30 13473 H 1275.52 1.25387 3.96968 0
M  V30 13474 H 1276.05 2.63481 2.98031 0
M  V30 13475 H 1272.79 5.60246 3.403 0
M  V30 13476 H 1272.31 4.15792 4.32293 0
M  V30 13477 H 1273.99 4.74789 4.39528 0
M  V30 13478 N 1274.12 -1.03182 1.19127 0
M  V30 13479 C 1275.05 -2.13301 0.94999 0
M  V30 13480 C 1276.03 -1.69707 -0.115577 0
M  V30 13481 O 1277.22 -1.94161 0.0388395 0
M  V30 13482 C 1274.35 -3.43902 0.484637 0
M  V30 13483 C 1273.3 -4.01164 1.4917 0
M  V30 13484 C 1272.63 -5.2735 0.883537 0
M  V30 13485 C 1273.93 -4.36311 2.87107 0
M  V30 13486 H 1275.62 -2.33743 1.87095 0
M  V30 13487 H 1273.17 -1.12332 0.900977 0
M  V30 13488 H 1275.12 -4.20308 0.30315 0
M  V30 13489 H 1273.85 -3.23173 -0.471909 0
M  V30 13490 H 1272.5 -3.26849 1.66028 0
M  V30 13491 H 1272.15 -5.02936 -0.0804712 0
M  V30 13492 H 1271.85 -5.66624 1.55599 0
M  V30 13493 H 1273.38 -6.06425 0.71278 0
M  V30 13494 H 1274.79 -5.03666 2.73848 0
M  V30 13495 H 1273.19 -4.86659 3.51117 0
M  V30 13496 H 1274.26 -3.45743 3.39985 0
M  V30 13497 N 1275.6 -0.99472 -1.22242 0
M  V30 13498 C 1277.02 -0.705762 -1.43147 0
M  V30 13499 C 1277.22 0.722908 -1.88086 0
M  V30 13500 O 1276.27 1.49359 -2.03588 0
M  V30 13501 C 1277.59 -1.71288 -2.47145 0
M  V30 13502 C 1279.13 -1.72853 -2.60942 0
M  V30 13503 C 1279.61 -2.72433 -3.68163 0
M  V30 13504 N 1281.1 -2.71039 -3.75623 0
M  V30 13505 C 1281.83 -3.44753 -4.58184 0
M  V30 13506 N 1281.33 -4.28075 -5.44724 0
M  V30 13507 N 1283.12 -3.33451 -4.52512 0
M  V30 13508 H 1275.27 -1.91738 -0.913792 0
M  V30 13509 H 1277.54 -0.82702 -0.463403 0
M  V30 13510 H 1277.24 -2.7353 -2.21075 0
M  V30 13511 H 1277.12 -1.50721 -3.45779 0
M  V30 13512 H 1279.5 -0.713085 -2.86355 0
M  V30 13513 H 1279.59 -1.9749 -1.62577 0
M  V30 13514 H 1279.23 -3.74129 -3.43497 0
M  V30 13515 H 1279.16 -2.45066 -4.66101 0
M  V30 13516 H 1281.65 -2.10581 -3.1379 0
M  V30 13517 H 1281.96 -4.81143 -6.04749 0
M  V30 13518 H 1280.31 -4.32161 -5.44299 0
M  V30 13519 H 1283.5 -2.67797 -3.8393 0
M  V30 13520 H 1283.67 -3.91158 -5.16623 0
M  V30 13521 N 1277.08 1.37613 -0.768148 0
M  V30 13522 C 1278.36 1.93921 -0.255724 0
M  V30 13523 C 1278.74 1.70215 1.2486 0
M  V30 13524 O 1278.08 1.0489 2.03003 0
M  V30 13525 C 1278.29 3.43354 -0.625204 0
M  V30 13526 C 1279.64 4.20439 -0.592978 0
M  V30 13527 O 1280.67 3.51701 -0.564375 0
M  V30 13528 O 1279.52 5.43008 -0.616849 0
M  V30 13529 H 1276.62 0.824968 -0.0579366 0
M  V30 13530 H 1279.16 1.46921 -0.849257 0
M  V30 13531 H 1277.94 3.54177 -1.66356 0
M  V30 13532 H 1277.56 3.976 -0.00442816 0
M  V30 13533 N 1278.56 0.518393 1.4883 0
M  V30 13534 C 1279.49 -0.239685 2.32267 0
M  V30 13535 C 1280.47 -0.94613 1.41359 0
M  V30 13536 O 1281.65 -0.934162 1.70256 0
M  V30 13537 C 1278.78 -1.29411 3.22289 0
M  V30 13538 C 1277.74 -0.706504 4.22129 0
M  V30 13539 C 1277.06 -1.86273 5.01205 0
M  V30 13540 C 1278.36 0.314079 5.21355 0
M  V30 13541 H 1280.06 0.4568 2.95895 0
M  V30 13542 H 1277.6 0.221126 1.42292 0
M  V30 13543 H 1279.56 -1.8323 3.7948 0
M  V30 13544 H 1278.28 -2.02001 2.56638 0
M  V30 13545 H 1276.94 -0.189924 3.66108 0
M  V30 13546 H 1276.59 -2.57674 4.31988 0
M  V30 13547 H 1276.29 -1.47554 5.68772 0
M  V30 13548 H 1277.81 -2.40492 5.61245 0
M  V30 13549 H 1279.22 -0.136604 5.73137 0
M  V30 13550 H 1277.62 0.618026 5.96909 0
M  V30 13551 H 1278.69 1.22394 4.69199 0
M  V30 13552 N 1280.03 -1.55556 0.252993 0
M  V30 13553 C 1281.26 -2.03491 -0.374022 0
M  V30 13554 C 1281.68 -1.13208 -1.51094 0
M  V30 13555 O 1281.03 -0.147705 -1.81901 0
M  V30 13556 C 1281.09 -3.50724 -0.876047 0
M  V30 13557 O 1280.81 -4.37569 0.215574 0
M  V30 13558 C 1282.31 -4.14448 -1.57313 0
M  V30 13559 H 1279.53 -0.665183 -0.0881644 0
M  V30 13560 H 1282.07 -2.00964 0.378636 0
M  V30 13561 H 1280.23 -3.53766 -1.57886 0
M  V30 13562 H 1280.64 -5.24235 -0.166625 0
M  V30 13563 H 1282.11 -5.19142 -1.87606 0
M  V30 13564 H 1282.59 -3.61299 -2.49719 0
M  V30 13565 H 1283.2 -4.15346 -0.914735 0
M  V30 13566 N 1281.51 0.0200419 -1.57587 0
M  V30 13567 C 1282.93 0.375834 -1.55112 0
M  V30 13568 C 1283.13 1.76047 -0.980297 0
M  V30 13569 O 1282.18 2.45138 -0.605297 0
M  V30 13570 C 1283.5 0.269418 -2.99491 0
M  V30 13571 C 1285.05 0.345838 -3.11084 0
M  V30 13572 C 1285.52 0.268771 -4.57211 0
M  V30 13573 N 1287.01 0.32729 -4.62042 0
M  V30 13574 C 1287.75 0.290688 -5.72663 0
M  V30 13575 N 1287.24 0.205851 -6.92494 0
M  V30 13576 N 1289.04 0.341082 -5.61064 0
M  V30 13577 H 1281.19 -0.885979 -1.93039 0
M  V30 13578 H 1283.45 -0.337753 -0.885792 0
M  V30 13579 H 1283.16 -0.682452 -3.45015 0
M  V30 13580 H 1283.03 1.0595 -3.62014 0
M  V30 13581 H 1285.42 1.28814 -2.65501 0
M  V30 13582 H 1285.5 -0.47376 -2.51375 0
M  V30 13583 H 1285.14 -0.669906 -5.03463 0
M  V30 13584 H 1285.07 1.10659 -5.14842 0
M  V30 13585 H 1287.56 0.395004 -3.7583 0
M  V30 13586 H 1287.88 0.18327 -7.72583 0
M  V30 13587 H 1286.22 0.171768 -6.94788 0
M  V30 13588 H 1289.41 0.405415 -4.66341 0
M  V30 13589 H 1289.58 0.309091 -6.47262 0
M  V30 13590 N 1282.99 1.54862 0.292472 0
M  V30 13591 C 1283.92 1.89406 1.36556 0
M  V30 13592 C 1284.9 0.753838 1.52484 0
M  V30 13593 O 1286.09 1.01031 1.6585 0
M  V30 13594 C 1283.22 2.14888 2.72838 0
M  V30 13595 C 1282.17 3.3073 2.71665 0
M  V30 13596 C 1281.5 3.41648 4.11316 0
M  V30 13597 C 1282.8 4.67622 2.32651 0
M  V30 13598 H 1284.49 2.79284 1.07894 0
M  V30 13599 H 1282.04 1.34377 0.517585 0
M  V30 13600 H 1283.99 2.3764 3.48002 0
M  V30 13601 H 1282.71 1.2179 3.03042 0
M  V30 13602 H 1281.37 3.07915 1.98958 0
M  V30 13603 H 1281.02 2.46051 4.38711 0
M  V30 13604 H 1280.72 4.19522 4.11431 0
M  V30 13605 H 1282.24 3.6667 4.88248 0
M  V30 13606 H 1283.66 4.90048 2.97533 0
M  V30 13607 H 1282.06 5.48272 2.43963 0
M  V30 13608 H 1283.13 4.67762 1.27777 0
M  V30 13609 N 1284.47 -0.556076 1.47464 0
M  V30 13610 C 1285.4 -1.67829 1.56096 0
M  V30 13611 C 1286.41 -1.56541 0.447077 0
M  V30 13612 O 1287.6 -1.63478 0.716739 0
M  V30 13613 C 1284.7 -3.06303 1.45023 0
M  V30 13614 C 1283.88 -3.43334 2.70999 0
M  V30 13615 C 1282.93 -4.60976 2.53746 0
M  V30 13616 O 1281.96 -4.65501 3.27564 0
M  V30 13617 N 1283.16 -5.5754 1.61647 0
M  V30 13618 H 1285.93 -1.6087 2.52865 0
M  V30 13619 H 1283.49 -0.74274 1.43857 0
M  V30 13620 H 1285.48 -3.82838 1.31214 0
M  V30 13621 H 1284.05 -3.07483 0.563311 0
M  V30 13622 H 1283.27 -2.56236 2.99561 0
M  V30 13623 H 1284.56 -3.64851 3.54629 0
M  V30 13624 H 1283.96 -5.56642 1.00827 0
M  V30 13625 H 1282.51 -6.33397 1.53789 0
M  V30 13626 N 1285.95 -1.35615 -0.802897 0
M  V30 13627 C 1287.36 -1.26062 -1.37715 0
M  V30 13628 C 1287.71 0.105411 -1.95917 0
M  V30 13629 O 1286.83 1.00648 -1.91569 0
M  V30 13630 C 1287.43 -2.28261 -2.50365 0
M  V30 13631 C 1285.99 -2.22437 -3.03642 0
M  V30 13632 C 1285.14 -2.1377 -1.76629 0
M  V30 13633 H 1288.09 -1.46689 -0.605631 0
M  V30 13634 H 1288.11 -1.91122 -3.29017 0
M  V30 13635 H 1287.62 -3.27671 -2.07975 0
M  V30 13636 H 1285.72 -1.2645 -3.50487 0
M  V30 13637 H 1285.83 -3.14558 -3.61373 0
M  V30 13638 H 1284.2 -1.59806 -1.98328 0
M  V30 13639 H 1284.98 -3.15046 -1.36385 0
M  V30 13640 N 1287.43 1.02549 -1.19673 0
M  V30 13641 C 1288.38 2.09257 -0.905282 0
M  V30 13642 C 1289.36 1.60363 0.131302 0
M  V30 13643 O 1290.55 1.76842 -0.0748563 0
M  V30 13644 C 1287.68 3.40345 -0.449474 0
M  V30 13645 C 1286.77 3.95964 -1.51899 0
M  V30 13646 N 1287.16 4.25203 -2.73926 0
M  V30 13647 C 1285.46 4.24013 -1.38307 0
M  V30 13648 C 1286.16 4.69925 -3.42849 0
M  V30 13649 N 1285.13 4.71664 -2.70248 0
M  V30 13650 H 1288.93 2.29761 -1.83268 0
M  V30 13651 H 1286.45 1.2044 -1.0894 0
M  V30 13652 H 1288.45 4.16308 -0.222121 0
M  V30 13653 H 1287.11 3.2126 0.471402 0
M  V30 13654 H 1288.12 4.14381 -3.10658 0
M  V30 13655 H 1284.79 4.14174 -0.52592 0
M  V30 13656 H 1286.18 5.01442 -4.4722 0
M  V30 13657 N 1288.9 1.00119 1.21713 0
M  V30 13658 C 1289.85 0.551452 2.25969 0
M  V30 13659 C 1290.85 -0.402075 1.64559 0
M  V30 13660 O 1292.05 -0.273685 1.77907 0
M  V30 13661 H 1288.43 0.159968 0.734789 0
M  V30 13662 H 1290.4 1.44201 2.61244 0
M  V30 13663 C 1289.15 -0.109992 3.47526 0
M  V30 13664 H 1288.47 0.614686 3.95046 0
M  V30 13665 H 1289.91 -0.388007 4.22221 0
M  V30 13666 C 1288.37 -1.34798 3.08757 0
M  V30 13667 O 1288.9 -2.44266 3.189 0
M  V30 13668 N 1287.1 -1.2263 2.63458 0
M  V30 13669 H 1286.65 -0.335571 2.55405 0
M  V30 13670 H 1286.61 -2.05565 2.37887 0
M  V30 13671 N 1290.38 -1.37203 0.775435 0
M  V30 13672 C 1291.31 -2.32819 0.17826 0
M  V30 13673 C 1292.29 -1.55963 -0.678944 0
M  V30 13674 O 1293.48 -1.84183 -0.615648 0
M  V30 13675 C 1290.61 -3.40198 -0.698768 0
M  V30 13676 C 1289.56 -4.27961 0.057423 0
M  V30 13677 C 1288.89 -5.26385 -0.93929 0
M  V30 13678 C 1290.19 -5.07402 1.23856 0
M  V30 13679 H 1291.88 -2.8301 0.977028 0
M  V30 13680 H 1289.43 -1.3607 0.471274 0
M  V30 13681 H 1291.38 -4.06067 -1.12637 0
M  V30 13682 H 1290.1 -2.88541 -1.53009 0
M  V30 13683 H 1288.76 -3.63628 0.465848 0
M  V30 13684 H 1288.41 -4.71007 -1.76527 0
M  V30 13685 H 1288.11 -5.85966 -0.437844 0
M  V30 13686 H 1289.64 -5.9513 -1.36576 0
M  V30 13687 H 1291.05 -5.6639 0.887423 0
M  V30 13688 H 1289.45 -5.76327 1.67234 0
M  V30 13689 H 1290.52 -4.3986 2.04085 0
M  V30 13690 N 1291.86 -0.526279 -1.48553 0
M  V30 13691 C 1292.82 0.227739 -2.28066 0
M  V30 13692 C 1293.82 0.871146 -1.35158 0
M  V30 13693 O 1295.01 0.731769 -1.58085 0
M  V30 13694 C 1292.14 1.32918 -3.1392 0
M  V30 13695 H 1293.34 -0.470313 -2.96189 0
M  V30 13696 H 1290.89 -0.282089 -1.53733 0
M  V30 13697 H 1291.63 2.0606 -2.50419 0
M  V30 13698 H 1291.41 0.872991 -3.82258 0
M  V30 13699 H 1292.9 1.85964 -3.73908 0
M  V30 13700 N 1293.34 1.5542 -0.261239 0
M  V30 13701 C 1294.61 1.91243 0.41056 0
M  V30 13702 C 1294.99 1.1838 1.74784 0
M  V30 13703 O 1294.34 0.306013 2.26442 0
M  V30 13704 C 1294.55 3.44404 0.56453 0
M  V30 13705 C 1295.9 4.15927 0.853827 0
M  V30 13706 O 1296.92 3.50222 0.649861 0
M  V30 13707 O 1295.78 5.32175 1.24308 0
M  V30 13708 H 1292.88 0.796491 0.222555 0
M  V30 13709 H 1295.42 1.66912 -0.306367 0
M  V30 13710 H 1294.2 3.89478 -0.377134 0
M  V30 13711 H 1293.82 3.74644 1.33145 0
M  V30 13712 N 1294.82 -0.0116844 1.57596 0
M  V30 13713 C 1296.06 -0.699994 1.90336 0
M  V30 13714 C 1296.39 -1.74067 0.861072 0
M  V30 13715 O 1295.67 -1.94119 -0.121712 0
M  V30 13716 C 1295.95 -1.35377 3.33684 0
M  V30 13717 C 1295.81 -0.325434 4.48621 0
M  V30 13718 C 1297.12 -2.28312 3.76247 0
M  V30 13719 H 1294.24 -0.253002 0.692213 0
M  V30 13720 H 1296.89 0.037211 1.89964 0
M  V30 13721 H 1295.04 -1.98212 3.34132 0
M  V30 13722 H 1296.71 0.302331 4.60308 0
M  V30 13723 H 1294.95 0.353527 4.32357 0
M  V30 13724 H 1295.62 -0.8217 5.4585 0
M  V30 13725 H 1298.1 -1.75505 3.77276 0
M  V30 13726 H 1296.97 -2.71028 4.77321 0
M  V30 13727 H 1297.23 -3.15727 3.09465 0
M  V30 13728 N 1296.29 -1.55015 -0.284256 0
M  V30 13729 C 1297.22 -1.90128 -1.3555 0
M  V30 13730 C 1298.2 -0.761914 -1.52082 0
M  V30 13731 O 1299.39 -1.01909 -1.65312 0
M  V30 13732 C 1296.52 -2.16332 -2.71695 0
M  V30 13733 C 1295.47 -3.32166 -2.69907 0
M  V30 13734 C 1294.8 -3.43824 -4.09498 0
M  V30 13735 C 1296.1 -4.6885 -2.30168 0
M  V30 13736 H 1297.79 -2.79852 -1.06411 0
M  V30 13737 H 1295.34 -1.34649 -0.510451 0
M  V30 13738 H 1297.29 -2.39482 -3.46737 0
M  V30 13739 H 1296.02 -1.23395 -3.02392 0
M  V30 13740 H 1294.68 -3.08965 -1.97322 0
M  V30 13741 H 1294.32 -2.48375 -4.374 0
M  V30 13742 H 1294.02 -4.21698 -4.092 0
M  V30 13743 H 1295.55 -3.69254 -4.86296 0
M  V30 13744 H 1296.96 -4.91619 -2.9493 0
M  V30 13745 H 1295.36 -5.49558 -2.41052 0
M  V30 13746 H 1296.43 -4.68433 -1.25294 0
M  V30 13747 N 1297.77 0.548248 -1.47757 0
M  V30 13748 C 1299 1.3302 -1.58472 0
M  V30 13749 C 1299.41 1.87292 -0.238186 0
M  V30 13750 O 1298.77 1.65465 0.76991 0
M  V30 13751 C 1298.82 2.49386 -2.61704 0
M  V30 13752 O 1298.54 1.97355 -3.9113 0
M  V30 13753 C 1300.04 3.41471 -2.82688 0
M  V30 13754 H 1297.26 0.405172 -0.534861 0
M  V30 13755 H 1299.81 0.663251 -1.93446 0
M  V30 13756 H 1297.96 3.12001 -2.29639 0
M  V30 13757 H 1298.38 2.7339 -4.47614 0
M  V30 13758 H 1299.85 4.19516 -3.58762 0
M  V30 13759 H 1300.33 3.95573 -1.90837 0
M  V30 13760 H 1300.93 2.84664 -3.15985 0
M  V30 13761 N 1299.25 1.36039 0.795694 0
M  V30 13762 C 1300.5 1.30112 1.5556 0
M  V30 13763 C 1300.83 -0.121197 1.93821 0
M  V30 13764 O 1300.1 -1.07313 1.62216 0
M  V30 13765 C 1300.39 2.21792 2.8369 0
M  V30 13766 C 1300.24 3.72691 2.51836 0
M  V30 13767 C 1301.56 2.12365 3.85472 0
M  V30 13768 H 1298.68 0.473971 0.564376 0
M  V30 13769 H 1301.32 1.66536 0.91465 0
M  V30 13770 H 1299.47 1.9086 3.38386 0
M  V30 13771 H 1301.14 4.14115 2.0324 0
M  V30 13772 H 1299.38 3.92436 1.84869 0
M  V30 13773 H 1300.06 4.32242 3.43323 0
M  V30 13774 H 1302.53 2.3958 3.40207 0
M  V30 13775 H 1301.41 2.78695 4.72885 0
M  V30 13776 H 1301.67 1.10898 4.27965 0
M  V30 13777 N 1300.73 -1.01913 1.20215 0
M  V30 13778 C 1301.68 -2.12516 0.945493 0
M  V30 13779 C 1302.67 -1.69091 -0.102243 0
M  V30 13780 O 1303.88 -1.79936 0.047888 0
M  V30 13781 H 1300.25 -0.694496 0.288409 0
M  V30 13782 H 1302.22 -2.31349 1.88468 0
M  V30 13783 C 1300.97 -3.43919 0.51137 0
M  V30 13784 H 1300.29 -3.77758 1.30916 0
M  V30 13785 H 1301.73 -4.22374 0.370981 0
M  V30 13786 C 1300.19 -3.27844 -0.775902 0
M  V30 13787 O 1300.72 -3.5734 -1.83496 0
M  V30 13788 N 1298.93 -2.81101 -0.73694 0
M  V30 13789 H 1298.48 -2.57296 0.125164 0
M  V30 13790 H 1298.43 -2.70726 -1.59859 0
M  V30 13791 N 1302.21 -1.00763 -1.2118 0
M  V30 13792 C 1303.62 -0.724746 -1.72059 0
M  V30 13793 C 1303.97 0.757413 -1.80991 0
M  V30 13794 O 1303.09 1.59152 -1.46627 0
M  V30 13795 C 1303.69 -1.30893 -3.12494 0
M  V30 13796 C 1302.25 -1.07511 -3.60719 0
M  V30 13797 C 1301.39 -1.42014 -2.38175 0
M  V30 13798 H 1304.35 -1.17821 -1.0632 0
M  V30 13799 H 1304.37 -0.694919 -3.741 0
M  V30 13800 H 1303.88 -2.38767 -3.05961 0
M  V30 13801 H 1301.98 -0.0136518 -3.72597 0
M  V30 13802 H 1302.09 -1.74885 -4.4604 0
M  V30 13803 H 1300.46 -0.838972 -2.40486 0
M  V30 13804 H 1301.24 -2.50924 -2.34291 0
M  V30 13805 N 1303.68 1.3679 -0.7827 0
M  V30 13806 C 1304.96 1.93639 -0.276278 0
M  V30 13807 C 1305.34 1.7153 1.23048 0
M  V30 13808 O 1304.69 1.07037 2.01879 0
M  V30 13809 C 1304.9 3.42672 -0.661586 0
M  V30 13810 C 1306.25 4.19786 -0.637538 0
M  V30 13811 O 1307.27 3.51082 -0.601645 0
M  V30 13812 O 1306.13 5.42323 -0.674408 0
M  V30 13813 H 1303.22 0.824307 -0.0666832 0
M  V30 13814 H 1305.77 1.46012 -0.864792 0
M  V30 13815 H 1304.54 3.52393 -1.70103 0
M  V30 13816 H 1304.17 3.97573 -0.0465987 0
M  V30 13817 N 1305.16 0.53415 1.48272 0
M  V30 13818 C 1306.39 0.00368464 2.074 0
M  V30 13819 C 1306.81 -1.27003 1.38751 0
M  V30 13820 O 1306.17 -1.75502 0.454817 0
M  V30 13821 C 1306.22 -0.199034 3.6005 0
M  V30 13822 O 1305.32 -1.26679 3.92462 0
M  V30 13823 H 1304.66 0.0409936 0.662733 0
M  V30 13824 H 1307.19 0.743253 1.90622 0
M  V30 13825 H 1307.2 -0.420404 4.05828 0
M  V30 13826 H 1305.88 0.731391 4.09418 0
M  V30 13827 H 1304.46 -1.02775 3.58457 0
M  V30 13828 N 1306.64 -1.55279 0.269478 0
M  V30 13829 C 1308.05 -1.85286 -0.229372 0
M  V30 13830 C 1308.4 -1.19148 -1.55879 0
M  V30 13831 O 1307.53 -0.4778 -2.11059 0
M  V30 13832 C 1308.12 -3.3615 -0.42296 0
M  V30 13833 C 1306.68 -3.66301 -0.866047 0
M  V30 13834 C 1305.83 -2.77265 0.0439028 0
M  V30 13835 H 1308.78 -1.509 0.491427 0
M  V30 13836 H 1308.8 -3.5895 -1.26234 0
M  V30 13837 H 1308.31 -3.84258 0.544768 0
M  V30 13838 H 1306.41 -3.23688 -1.84545 0
M  V30 13839 H 1306.53 -4.73851 -0.707274 0
M  V30 13840 H 1304.89 -2.50299 -0.471433 0
M  V30 13841 H 1305.67 -3.28186 1.00741 0
M  V30 13842 N 1308.12 0.00332656 -1.576 0
M  V30 13843 C 1309.08 0.980628 -2.07163 0
M  V30 13844 C 1310.08 1.27455 -0.980402 0
M  V30 13845 O 1311.27 1.22029 -1.24317 0
M  V30 13846 C 1308.4 2.30647 -2.51028 0
M  V30 13847 H 1309.6 0.551982 -2.94776 0
M  V30 13848 H 1307.15 0.250728 -1.54276 0
M  V30 13849 H 1307.88 2.78207 -1.66647 0
M  V30 13850 H 1307.67 2.10635 -3.30719 0
M  V30 13851 H 1309.16 3.00761 -2.89711 0
M  V30 13852 N 1309.6 1.55164 0.276031 0
M  V30 13853 C 1310.82 1.7998 1.03063 0
M  V30 13854 C 1311.25 0.569769 1.79263 0
M  V30 13855 O 1310.6 -0.48054 1.74816 0
M  V30 13856 C 1310.65 3.02209 1.96728 0
M  V30 13857 O 1309.76 2.77083 3.05449 0
M  V30 13858 H 1309.1 0.594963 0.294814 0
M  V30 13859 H 1311.63 2.02301 0.305861 0
M  V30 13860 H 1311.64 3.3086 2.38738 0
M  V30 13861 H 1310.31 3.91386 1.40677 0
M  V30 13862 H 1308.89 2.5952 2.67776 0
M  V30 13863 N 1311.07 -0.540404 1.48045 0
M  V30 13864 C 1312.35 -1.30148 1.46017 0
M  V30 13865 C 1312.73 -2.10445 0.166171 0
M  V30 13866 O 1312.08 -2.12013 -0.852223 0
M  V30 13867 C 1312.29 -2.19177 2.71593 0
M  V30 13868 C 1313.64 -2.79655 3.19497 0
M  V30 13869 O 1314.66 -2.2947 2.72437 0
M  V30 13870 O 1313.52 -3.70912 4.01356 0
M  V30 13871 H 1310.61 -0.586879 0.582668 0
M  V30 13872 H 1313.16 -0.557918 1.60267 0
M  V30 13873 H 1311.93 -1.59556 3.57292 0
M  V30 13874 H 1311.56 -3.00798 2.60012 0
M  V30 13875 N 1312.55 -1.36459 -0.788468 0
M  V30 13876 C 1313.96 -1.27515 -1.3637 0
M  V30 13877 C 1314.31 0.0846251 -1.96017 0
M  V30 13878 O 1313.44 0.98611 -1.92626 0
M  V30 13879 C 1314.03 -2.30903 -2.4793 0
M  V30 13880 C 1312.59 -2.25645 -3.01266 0
M  V30 13881 C 1311.74 -2.15631 -1.74352 0
M  V30 13882 H 1314.69 -1.47324 -0.590039 0
M  V30 13883 H 1314.71 -1.94601 -3.26972 0
M  V30 13884 H 1314.22 -3.29858 -2.04487 0
M  V30 13885 H 1312.33 -1.3016 -3.49126 0
M  V30 13886 H 1312.44 -3.18373 -3.58016 0
M  V30 13887 H 1310.8 -1.61901 -1.96622 0
M  V30 13888 H 1311.59 -3.16475 -1.33036 0
M  V30 13889 N 1314.03 1.01274 -1.20754 0
M  V30 13890 C 1315.26 1.78524 -1.04579 0
M  V30 13891 C 1315.67 1.84409 0.404809 0
M  V30 13892 O 1315.03 1.29987 1.281 0
M  V30 13893 C 1315.08 3.22806 -1.62722 0
M  V30 13894 O 1314.8 3.17276 -3.02106 0
M  V30 13895 C 1316.3 4.16589 -1.51553 0
M  V30 13896 H 1313.52 0.561299 -0.367674 0
M  V30 13897 H 1316.07 1.27454 -1.59924 0
M  V30 13898 H 1314.22 3.71011 -1.11487 0
M  V30 13899 H 1314.64 4.07866 -3.29766 0
M  V30 13900 H 1316.11 5.15654 -1.9699 0
M  V30 13901 H 1316.59 4.36692 -0.468659 0
M  V30 13902 H 1317.19 3.74269 -2.01998 0
M  V30 13903 N 1315.51 1.01404 1.20644 0
M  V30 13904 C 1316.76 0.702949 1.90227 0
M  V30 13905 C 1317.09 -0.765243 1.78487 0
M  V30 13906 O 1316.36 -1.55569 1.16741 0
M  V30 13907 C 1316.65 1.13606 3.4171 0
M  V30 13908 C 1316.5 2.66437 3.62397 0
M  V30 13909 C 1317.82 0.705361 4.34411 0
M  V30 13910 H 1314.94 0.256842 0.690797 0
M  V30 13911 H 1317.58 1.26133 1.42093 0
M  V30 13912 H 1315.73 0.660977 3.82836 0
M  V30 13913 H 1317.4 3.21778 3.3054 0
M  V30 13914 H 1315.64 3.0753 3.05954 0
M  V30 13915 H 1316.32 2.91795 4.68572 0
M  V30 13916 H 1318.79 1.11375 4.00918 0
M  V30 13917 H 1317.67 1.03647 5.39026 0
M  V30 13918 H 1317.93 -0.393094 4.40349 0
M  V30 13919 N 1316.99 -1.36373 0.789944 0
M  V30 13920 C 1318.23 -1.99227 0.362582 0
M  V30 13921 C 1318.56 -1.62694 -1.06587 0
M  V30 13922 O 1317.82 -0.873748 -1.75112 0
M  V30 13923 C 1318.12 -3.54243 0.474025 0
M  V30 13924 C 1317.78 -4.10597 1.86336 0
M  V30 13925 C 1316.44 -4.257 2.24349 0
M  V30 13926 C 1318.8 -4.41306 2.77306 0
M  V30 13927 C 1316.12 -4.68824 3.52734 0
M  V30 13928 C 1318.48 -4.85861 4.05119 0
M  V30 13929 C 1317.14 -4.9917 4.43154 0
M  V30 13930 H 1316.41 -0.729025 0.132678 0
M  V30 13931 H 1319.06 -1.62854 1.00751 0
M  V30 13932 H 1317.36 -3.90973 -0.254399 0
M  V30 13933 H 1319.06 -4.00807 0.124384 0
M  V30 13934 H 1315.65 -3.99281 1.55797 0
M  V30 13935 H 1319.83 -4.29205 2.49191 0
M  V30 13936 H 1315.09 -4.77315 3.82073 0
M  V30 13937 H 1319.26 -5.08587 4.75723 0
M  V30 13938 H 1316.89 -5.32344 5.42692 0
M  V30 13939 N 1318.47 -0.542005 -1.47987 0
M  V30 13940 C 1319.42 0.234244 -2.26794 0
M  V30 13941 C 1320.4 0.899085 -1.33436 0
M  V30 13942 O 1321.59 0.799904 -1.57894 0
M  V30 13943 C 1318.72 1.27312 -3.18821 0
M  V30 13944 C 1317.81 0.612457 -4.19654 0
M  V30 13945 N 1318.2 -0.30875 -5.04857 0
M  V30 13946 C 1316.5 0.868224 -4.37468 0
M  V30 13947 C 1317.2 -0.691052 -5.77581 0
M  V30 13948 N 1316.17 -0.0493574 -5.43578 0
M  V30 13949 H 1319.97 -0.47427 -2.90048 0
M  V30 13950 H 1317.49 -0.360868 -1.5834 0
M  V30 13951 H 1319.49 1.84305 -3.73948 0
M  V30 13952 H 1318.15 1.98288 -2.57122 0
M  V30 13953 H 1319.16 -0.682054 -5.13389 0
M  V30 13954 H 1315.83 1.56765 -3.86951 0
M  V30 13955 H 1317.22 -1.44713 -6.56131 0
M  V30 13956 N 1319.94 1.55134 -0.277709 0
M  V30 13957 C 1320.89 2.2263 0.608637 0
M  V30 13958 C 1321.86 1.20067 1.14774 0
M  V30 13959 O 1323.05 1.48617 1.19657 0
M  V30 13960 C 1320.19 2.95308 1.78571 0
M  V30 13961 C 1319.3 4.12595 1.28021 0
M  V30 13962 C 1318.43 4.7291 2.41929 0
M  V30 13963 C 1317.47 5.82386 1.88395 0
M  V30 13964 N 1316.61 6.36754 2.95786 0
M  V30 13965 H 1321.45 2.97988 0.0264138 0
M  V30 13966 H 1318.99 1.471 0.00127068 0
M  V30 13967 H 1320.94 3.35662 2.47764 0
M  V30 13968 H 1319.57 2.22368 2.33992 0
M  V30 13969 H 1318.63 3.77343 0.481297 0
M  V30 13970 H 1319.94 4.91537 0.848128 0
M  V30 13971 H 1319.09 5.15997 3.1911 0
M  V30 13972 H 1317.83 3.93251 2.88453 0
M  V30 13973 H 1316.84 5.38746 1.09694 0
M  V30 13974 H 1318.06 6.63916 1.42803 0
M  V30 13975 H 1316.01 5.59987 3.41687 0
M  V30 13976 H 1315.92 7.10975 2.57002 0
M  V30 13977 H 1317.19 6.845 3.72935 0
M  V30 13978 N 1321.42 0.00503138 1.57599 0
M  V30 13979 C 1322.84 -0.351109 1.5569 0
M  V30 13980 C 1323.04 -1.74465 1.00818 0
M  V30 13981 O 1322.09 -2.44144 0.64422 0
M  V30 13982 C 1323.41 -0.221738 2.99881 0
M  V30 13983 C 1324.95 -0.296303 3.11594 0
M  V30 13984 C 1325.43 -0.195998 4.5758 0
M  V30 13985 N 1326.92 -0.253741 4.62504 0
M  V30 13986 C 1327.66 -0.199546 5.73053 0
M  V30 13987 N 1327.15 -0.0956553 6.92734 0
M  V30 13988 N 1328.94 -0.251779 5.61536 0
M  V30 13989 H 1321.1 0.916578 1.91605 0
M  V30 13990 H 1323.36 0.351802 0.880306 0
M  V30 13991 H 1323.06 0.737255 3.43886 0
M  V30 13992 H 1322.94 -1.00178 3.63654 0
M  V30 13993 H 1325.33 -1.24574 2.67517 0
M  V30 13994 H 1325.41 0.513692 2.50589 0
M  V30 13995 H 1325.05 0.749918 5.02333 0
M  V30 13996 H 1324.98 -1.02455 5.16537 0
M  V30 13997 H 1327.47 -0.335163 3.76411 0
M  V30 13998 H 1327.78 -0.0603357 7.72776 0
M  V30 13999 H 1326.13 -0.0612113 6.94973 0
M  V30 14000 H 1329.32 -0.331173 4.66927 0
M  V30 14001 H 1329.49 -0.206078 6.47672 0
M  V30 14002 N 1322.9 -1.55308 -0.267798 0
M  V30 14003 C 1324.13 -1.79929 -1.01533 0
M  V30 14004 C 1324.54 -0.57545 -1.80237 0
M  V30 14005 O 1323.88 0.465072 -1.77715 0
M  V30 14006 C 1323.94 -2.97568 -2.01726 0
M  V30 14007 C 1323.61 -4.34407 -1.41912 0
M  V30 14008 C 1324.6 -5.13197 -0.832151 0
M  V30 14009 C 1322.29 -4.81074 -1.44476 0
M  V30 14010 C 1324.28 -6.3679 -0.278781 0
M  V30 14011 C 1321.97 -6.04621 -0.887535 0
M  V30 14012 C 1322.97 -6.82316 -0.305548 0
M  V30 14013 O 1322.66 -8.03532 0.243133 0
M  V30 14014 H 1322.39 -0.603082 -0.305398 0
M  V30 14015 H 1324.94 -2.03162 -0.302378 0
M  V30 14016 H 1323.17 -2.7004 -2.76795 0
M  V30 14017 H 1324.86 -3.09466 -2.62651 0
M  V30 14018 H 1325.63 -4.78273 -0.805 0
M  V30 14019 H 1321.51 -4.20604 -1.88714 0
M  V30 14020 H 1325.05 -6.97378 0.176117 0
M  V30 14021 H 1320.95 -6.39026 -0.911943 0
M  V30 14022 H 1321.71 -8.18392 0.132991 0
M  V30 14023 N 1324.38 0.532545 -1.4833 0
M  V30 14024 C 1325.31 1.64662 -1.65555 0
M  V30 14025 C 1326.29 1.62447 -0.50447 0
M  V30 14026 O 1327.47 1.79684 -0.736712 0
M  V30 14027 C 1324.6 3.03256 -1.69272 0
M  V30 14028 C 1323.56 3.20329 -2.83854 0
M  V30 14029 C 1322.88 4.59958 -2.72659 0
M  V30 14030 C 1324.18 3.03345 -4.25181 0
M  V30 14031 H 1325.88 1.50502 -2.58823 0
M  V30 14032 H 1323.42 0.722612 -1.24556 0
M  V30 14033 H 1325.38 3.81064 -1.79911 0
M  V30 14034 H 1324.1 3.18433 -0.725805 0
M  V30 14035 H 1322.76 2.44937 -2.72766 0
M  V30 14036 H 1322.41 4.71967 -1.73942 0
M  V30 14037 H 1322.11 4.72327 -3.49544 0
M  V30 14038 H 1323.63 5.39869 -2.85262 0
M  V30 14039 H 1325.05 3.70948 -4.37116 0
M  V30 14040 H 1323.44 3.27208 -5.03045 0
M  V30 14041 H 1324.51 1.998 -4.41824 0
M  V30 14042 N 1325.86 1.36875 0.78122 0
M  V30 14043 C 1326.8 1.31869 1.89418 0
M  V30 14044 C 1327.77 0.185904 1.65056 0
M  V30 14045 O 1328.96 0.373745 1.87104 0
M  V30 14046 C 1326.1 1.12205 3.2635 0
M  V30 14047 C 1325.21 2.34631 3.62729 0
M  V30 14048 C 1324.35 2.07914 4.8882 0
M  V30 14049 C 1323.38 3.26257 5.17902 0
M  V30 14050 N 1322.52 2.99152 6.35179 0
M  V30 14051 H 1327.36 2.2703 1.93032 0
M  V30 14052 H 1324.9 1.12826 0.943857 0
M  V30 14053 H 1326.86 0.988282 4.05326 0
M  V30 14054 H 1325.49 0.206959 3.22136 0
M  V30 14055 H 1324.54 2.58782 2.78812 0
M  V30 14056 H 1325.85 3.22919 3.80164 0
M  V30 14057 H 1325 1.91514 5.7568 0
M  V30 14058 H 1323.74 1.1695 4.7347 0
M  V30 14059 H 1322.75 3.43207 4.29522 0
M  V30 14060 H 1323.97 4.1806 5.35166 0
M  V30 14061 H 1321.92 2.10807 6.21205 0
M  V30 14062 H 1321.84 3.80981 6.52985 0
M  V30 14063 H 1323.1 2.86349 7.25 0
M  V30 14064 N 1327.33 -1.00632 1.21289 0
M  V30 14065 C 1328.28 -2.09382 0.97097 0
M  V30 14066 C 1329.25 -1.65783 -0.102561 0
M  V30 14067 O 1330.44 -1.90749 0.0442886 0
M  V30 14068 C 1327.58 -3.40844 0.540314 0
M  V30 14069 C 1326.69 -3.97862 1.68314 0
M  V30 14070 C 1325.82 -5.17427 1.20178 0
M  V30 14071 C 1324.86 -5.66552 2.31702 0
M  V30 14072 N 1324 -6.77368 1.84709 0
M  V30 14073 H 1328.84 -2.29411 1.90196 0
M  V30 14074 H 1326.38 -1.12488 0.947885 0
M  V30 14075 H 1328.33 -4.16313 0.271881 0
M  V30 14076 H 1326.96 -3.20857 -0.353677 0
M  V30 14077 H 1326.02 -3.19391 2.06624 0
M  V30 14078 H 1327.33 -4.30314 2.52252 0
M  V30 14079 H 1326.48 -6.00138 0.889926 0
M  V30 14080 H 1325.22 -4.86566 0.332422 0
M  V30 14081 H 1324.23 -4.82438 2.63691 0
M  V30 14082 H 1325.45 -5.99443 3.19131 0
M  V30 14083 H 1323.4 -6.48315 1.00116 0
M  V30 14084 H 1323.31 -7.09067 2.62221 0
M  V30 14085 H 1324.58 -7.63617 1.56554 0
M  V30 14086 N 1328.81 -1.02043 -1.20104 0
M  V30 14087 C 1330.06 -0.707271 -1.88893 0
M  V30 14088 C 1330.37 0.766617 -1.79951 0
M  V30 14089 O 1331.58 1.19248 -2.4391 0
M  V30 14090 C 1330.04 -1.2147 -3.38782 0
M  V30 14091 C 1329.64 -2.71576 -3.56301 0
M  V30 14092 C 1331.39 -0.977146 -4.13101 0
M  V30 14093 C 1329.29 -3.15781 -5.00037 0
M  V30 14094 H 1328.22 -0.26086 -0.707438 0
M  V30 14095 H 1330.88 -1.23361 -1.35846 0
M  V30 14096 H 1329.26 -0.616315 -3.91175 0
M  V30 14097 H 1330.43 -3.36997 -3.14276 0
M  V30 14098 H 1328.75 -2.93517 -2.95359 0
M  V30 14099 H 1331.34 -1.28278 -5.19085 0
M  V30 14100 H 1331.69 0.0862909 -4.16211 0
M  V30 14101 H 1332.22 -1.5391 -3.6682 0
M  V30 14102 H 1328.96 -4.21417 -5.02084 0
M  V30 14103 H 1328.48 -2.55083 -5.42856 0
M  V30 14104 H 1330.16 -3.08637 -5.6864 0
M  V30 14105 N 1330.29 1.35952 -0.797165 0
M  V30 14106 C 1331.71 1.52218 -0.479765 0
M  V30 14107 C 1331.91 1.74898 1.00064 0
M  V30 14108 O 1330.96 1.78495 1.78594 0
M  V30 14109 C 1332.28 2.70328 -1.31694 0
M  V30 14110 C 1333.82 2.84202 -1.31142 0
M  V30 14111 C 1334.3 4.05325 -2.13251 0
M  V30 14112 N 1335.79 4.12485 -2.10737 0
M  V30 14113 C 1336.52 5.053 -2.71033 0
M  V30 14114 N 1336.02 6.03509 -3.40219 0
M  V30 14115 N 1337.81 4.97975 -2.60725 0
M  V30 14116 H 1329.96 1.19486 -1.75604 0
M  V30 14117 H 1332.23 0.58383 -0.746892 0
M  V30 14118 H 1331.93 2.60116 -2.36712 0
M  V30 14119 H 1331.81 3.64684 -0.963607 0
M  V30 14120 H 1334.19 2.9387 -0.269131 0
M  V30 14121 H 1334.28 1.9073 -1.70457 0
M  V30 14122 H 1333.92 3.96417 -3.17515 0
M  V30 14123 H 1333.85 4.97959 -1.71302 0
M  V30 14124 H 1336.34 3.42174 -1.6039 0
M  V30 14125 H 1336.65 6.70909 -3.83537 0
M  V30 14126 H 1335 6.03711 -3.44322 0
M  V30 14127 H 1338.19 4.20203 -2.0627 0
M  V30 14128 H 1338.36 5.70119 -3.08007 0
M  V30 14129 N 1331.77 0.549846 1.47697 0
M  V30 14130 C 1333.05 -0.0422793 1.95554 0
M  V30 14131 C 1333.43 -1.49303 1.49238 0
M  V30 14132 O 1332.77 -2.16598 0.727844 0
M  V30 14133 C 1332.98 0.0955552 3.48869 0
M  V30 14134 C 1334.33 -0.0535698 4.24566 0
M  V30 14135 O 1335.36 0.0227365 3.56193 0
M  V30 14136 O 1334.21 -0.21645 5.46071 0
M  V30 14137 H 1331.31 -0.0682465 0.824179 0
M  V30 14138 H 1333.85 0.615849 1.58131 0
M  V30 14139 H 1332.63 1.10536 3.75363 0
M  V30 14140 H 1332.25 -0.600522 3.93039 0
M  V30 14141 N 1333.25 -1.54984 0.285932 0
M  V30 14142 C 1334.18 -2.25916 -0.590259 0
M  V30 14143 C 1335.16 -1.25319 -1.15018 0
M  V30 14144 O 1336.34 -1.54062 -1.18231 0
M  V30 14145 C 1333.47 -2.98849 -1.76936 0
M  V30 14146 C 1332.43 -4.06466 -1.3405 0
M  V30 14147 C 1331.75 -4.67032 -2.60356 0
M  V30 14148 C 1333.05 -5.20064 -0.482754 0
M  V30 14149 H 1334.75 -2.994 0.00131571 0
M  V30 14150 H 1332.29 -1.44 0.00207281 0
M  V30 14151 H 1334.25 -3.47186 -2.3883 0
M  V30 14152 H 1332.97 -2.22918 -2.38694 0
M  V30 14153 H 1331.63 -3.58957 -0.7447 0
M  V30 14154 H 1331.28 -3.87757 -3.20396 0
M  V30 14155 H 1330.98 -5.39703 -2.32368 0
M  V30 14156 H 1332.5 -5.18124 -3.23079 0
M  V30 14157 H 1333.91 -5.64387 -1.00697 0
M  V30 14158 H 1332.31 -5.99363 -0.297291 0
M  V30 14159 H 1333.38 -4.82358 0.495861 0
M  V30 14160 N 1334.72 -0.0133892 -1.57594 0
M  V30 14161 C 1335.97 0.667313 -1.90765 0
M  V30 14162 C 1336.29 1.73564 -0.888847 0
M  V30 14163 O 1335.56 1.95768 0.0718946 0
M  V30 14164 H 1334.14 0.24947 -0.704112 0
M  V30 14165 H 1336.81 -0.0574789 -1.94815 0
M  V30 14166 H 1335.9 1.13007 -2.90922 0
M  V30 14167 N 1336.2 1.55448 0.259558 0
M  V30 14168 C 1337.11 1.92364 1.34289 0
M  V30 14169 C 1338.13 0.822492 1.53333 0
M  V30 14170 O 1339.3 1.12277 1.672 0
M  V30 14171 C 1336.37 2.19978 2.67975 0
M  V30 14172 C 1335.43 3.43454 2.57562 0
M  V30 14173 C 1334.66 3.69741 3.84873 0
M  V30 14174 O 1334.89 2.9831 4.86176 0
M  V30 14175 O 1333.82 4.63274 3.84267 0
M  V30 14176 H 1337.65 2.8461 1.05975 0
M  V30 14177 H 1335.23 1.42167 0.459239 0
M  V30 14178 H 1337.11 2.39104 3.46998 0
M  V30 14179 H 1335.79 1.30912 2.96047 0
M  V30 14180 H 1334.7 3.29649 1.76869 0
M  V30 14181 H 1336.03 4.32782 2.34437 0
M  V30 14182 N 1337.68 -0.524672 1.4861 0
M  V30 14183 C 1338.93 -1.27768 1.56588 0
M  V30 14184 C 1339.25 -1.93469 0.243899 0
M  V30 14185 O 1338.52 -1.8159 -0.734985 0
M  V30 14186 H 1337.1 -0.474566 0.576885 0
M  V30 14187 H 1339.76 -0.610114 1.85104 0
M  V30 14188 H 1338.86 -2.05416 2.34969 0
M  V30 14189 N 1339.16 -1.37287 -0.77395 0
M  V30 14190 C 1340.11 -1.29389 -1.8773 0
M  V30 14191 C 1341.09 -0.182167 -1.59865 0
M  V30 14192 O 1342.28 -0.416367 -1.72033 0
M  V30 14193 C 1339.41 -1.10094 -3.25168 0
M  V30 14194 C 1338.5 -2.25801 -3.58991 0
M  V30 14195 N 1338.89 -3.51182 -3.64012 0
M  V30 14196 C 1337.19 -2.17907 -3.89144 0
M  V30 14197 C 1337.89 -4.27468 -3.9452 0
M  V30 14198 N 1336.87 -3.56583 -4.10304 0
M  V30 14199 H 1340.67 -2.24344 -1.8986 0
M  V30 14200 H 1338.18 -1.30228 -0.970282 0
M  V30 14201 H 1340.18 -1.02521 -4.04098 0
M  V30 14202 H 1338.84 -0.160535 -3.24303 0
M  V30 14203 H 1339.85 -3.85118 -3.46272 0
M  V30 14204 H 1336.53 -1.3191 -3.96113 0
M  V30 14205 H 1337.92 -5.3597 -4.05198 0
M  V30 14206 N 1340.64 0.999871 -1.21821 0
M  V30 14207 C 1341.88 1.7384 -1.03855 0
M  V30 14208 C 1342.21 1.89749 0.42727 0
M  V30 14209 O 1341.47 1.43261 1.33323 0
M  V30 14210 C 1341.77 3.1509 -1.6868 0
M  V30 14211 C 1341.43 3.19115 -3.18554 0
M  V30 14212 C 1340.09 3.19921 -3.5945 0
M  V30 14213 C 1342.45 3.15954 -4.14515 0
M  V30 14214 C 1339.77 3.15257 -4.94803 0
M  V30 14215 C 1342.13 3.12831 -5.49836 0
M  V30 14216 C 1340.79 3.11949 -5.90122 0
M  V30 14217 H 1340.06 0.636126 -0.380032 0
M  V30 14218 H 1342.71 1.17151 -1.51485 0
M  V30 14219 H 1341.01 3.75044 -1.13356 0
M  V30 14220 H 1342.71 3.70962 -1.52277 0
M  V30 14221 H 1339.3 3.19234 -2.85986 0
M  V30 14222 H 1343.48 3.14487 -3.83942 0
M  V30 14223 H 1338.74 3.12915 -5.25256 0
M  V30 14224 H 1342.91 3.09339 -6.23925 0
M  V30 14225 H 1340.54 3.0809 -6.94971 0
M  V30 14226 N 1342.11 1.02678 1.19562 0
M  V30 14227 C 1343.36 0.72059 1.88817 0
M  V30 14228 C 1343.68 -0.752942 1.79877 0
M  V30 14229 O 1342.95 -1.54233 1.20785 0
M  V30 14230 H 1341.53 0.26355 0.698964 0
M  V30 14231 H 1344.2 1.30056 1.4516 0
M  V30 14232 H 1343.29 1.01303 2.95202 0
M  V30 14233 N 1343.59 -1.35528 0.804364 0
M  V30 14234 C 1344.54 -2.29832 0.211186 0
M  V30 14235 C 1345.51 -1.52704 -0.653503 0
M  V30 14236 O 1346.69 -1.81152 -0.599052 0
M  V30 14237 C 1343.83 -3.39188 -0.636054 0
M  V30 14238 C 1342.95 -4.31283 0.248824 0
M  V30 14239 C 1342.08 -5.2773 -0.60621 0
M  V30 14240 C 1341.12 -6.11463 0.279205 0
M  V30 14241 N 1340.26 -7.00054 -0.535672 0
M  V30 14242 H 1345.1 -2.79971 1.0208 0
M  V30 14243 H 1342.64 -1.37793 0.514931 0
M  V30 14244 H 1344.59 -4.01254 -1.14241 0
M  V30 14245 H 1343.22 -2.90331 -1.41095 0
M  V30 14246 H 1342.28 -3.70241 0.873263 0
M  V30 14247 H 1343.59 -4.90046 0.930417 0
M  V30 14248 H 1342.74 -5.95158 -1.17778 0
M  V30 14249 H 1341.48 -4.69458 -1.32138 0
M  V30 14250 H 1340.49 -5.42984 0.863066 0
M  V30 14251 H 1341.71 -6.71813 0.9922 0
M  V30 14252 H 1339.66 -6.44273 -1.23486 0
M  V30 14253 H 1339.57 -7.55949 0.0879213 0
M  V30 14254 H 1340.84 -7.71833 -1.09059 0
M  V30 14255 N 1345.07 -0.557671 -1.47404 0
M  V30 14256 C 1346.32 -0.0338384 -2.02772 0
M  V30 14257 C 1346.65 1.31278 -1.43107 0
M  V30 14258 O 1345.93 1.85436 -0.58682 0
M  V30 14259 C 1346.21 0.0587427 -3.60052 0
M  V30 14260 C 1346.06 -1.315 -4.30148 0
M  V30 14261 C 1347.38 0.771942 -4.33277 0
M  V30 14262 H 1344.5 -0.0137711 -0.736871 0
M  V30 14263 H 1347.14 -0.720049 -1.75827 0
M  V30 14264 H 1345.29 0.643154 -3.83139 0
M  V30 14265 H 1346.96 -1.94265 -4.184 0
M  V30 14266 H 1345.21 -1.88956 -3.90484 0
M  V30 14267 H 1345.88 -1.20294 -5.38733 0
M  V30 14268 H 1348.35 0.275729 -4.15185 0
M  V30 14269 H 1347.23 0.805683 -5.42955 0
M  V30 14270 H 1347.49 1.82816 -4.0253 0
M  V30 14271 N 1346.55 1.54831 -0.294147 0
M  V30 14272 C 1347.77 2.04873 0.32276 0
M  V30 14273 C 1348.2 1.17034 1.47257 0
M  V30 14274 O 1347.56 0.172949 1.80473 0
M  V30 14275 C 1347.61 3.52431 0.76319 0
M  V30 14276 O 1346.71 3.67635 1.86865 0
M  V30 14277 H 1346.05 0.660926 0.0638162 0
M  V30 14278 H 1348.58 1.99944 -0.433995 0
M  V30 14279 H 1348.59 3.94155 1.05385 0
M  V30 14280 H 1347.27 4.15827 -0.0779464 0
M  V30 14281 H 1345.84 3.37816 1.57907 0
M  V30 14282 N 1348.03 0.0217466 1.57585 0
M  V30 14283 C 1348.96 -0.961069 2.12804 0
M  V30 14284 C 1349.94 -1.3442 1.04237 0
M  V30 14285 O 1351.12 -1.42412 1.32032 0
M  V30 14286 C 1348.25 -2.24586 2.64912 0
M  V30 14287 C 1347.21 -2.0037 3.78201 0
M  V30 14288 C 1346.53 -3.35051 4.16708 0
M  V30 14289 C 1347.83 -1.34879 5.04584 0
M  V30 14290 H 1349.53 -0.501222 2.95175 0
M  V30 14291 H 1347.07 -0.239649 1.41992 0
M  V30 14292 H 1349.03 -2.93715 3.02175 0
M  V30 14293 H 1347.75 -2.72723 1.79693 0
M  V30 14294 H 1346.41 -1.33662 3.41365 0
M  V30 14295 H 1346.06 -3.80932 3.28481 0
M  V30 14296 H 1345.76 -3.19656 4.93045 0
M  V30 14297 H 1347.28 -4.05459 4.56547 0
M  V30 14298 H 1348.7 -1.93997 5.3948 0
M  V30 14299 H 1347.09 -1.29906 5.85871 0
M  V30 14300 H 1348.16 -0.320774 4.83838 0
M  V30 14301 N 1349.51 -1.55583 -0.251311 0
M  V30 14302 C 1350.74 -1.80996 -0.99619 0
M  V30 14303 C 1351.14 -0.594534 -1.79616 0
M  V30 14304 O 1350.49 0.446197 -1.78199 0
M  V30 14305 C 1350.55 -2.99691 -1.98559 0
M  V30 14306 C 1350.21 -4.35888 -1.37297 0
M  V30 14307 C 1351.21 -5.14051 -0.777672 0
M  V30 14308 C 1348.89 -4.82579 -1.39366 0
M  V30 14309 C 1350.89 -6.3705 -0.211225 0
M  V30 14310 C 1348.58 -6.05528 -0.823357 0
M  V30 14311 C 1349.57 -6.82602 -0.233163 0
M  V30 14312 O 1349.26 -8.03229 0.328345 0
M  V30 14313 H 1348.99 -0.606287 -0.298985 0
M  V30 14314 H 1351.55 -2.03471 -0.280813 0
M  V30 14315 H 1349.78 -2.7296 -2.73915 0
M  V30 14316 H 1351.47 -3.12235 -2.59354 0
M  V30 14317 H 1352.23 -4.791 -0.754228 0
M  V30 14318 H 1348.11 -4.22582 -1.84243 0
M  V30 14319 H 1351.66 -6.97152 0.250073 0
M  V30 14320 H 1347.55 -6.39957 -0.844114 0
M  V30 14321 H 1348.32 -8.18205 0.219785 0
M  V30 14322 N 1350.98 0.516783 -1.48886 0
M  V30 14323 C 1352.22 1.28221 -1.59181 0
M  V30 14324 C 1352.59 1.90156 -0.265466 0
M  V30 14325 O 1353.79 2.67695 -0.243489 0
M  V30 14326 C 1352.06 2.3326 -2.70785 0
M  V30 14327 S 1353.62 3.19353 -3.00931 0
M  V30 14328 H 1350.44 0.435976 -0.561646 0
M  V30 14329 H 1353.04 0.587238 -1.86472 0
M  V30 14330 H 1351.74 1.86263 -3.65697 0
M  V30 14331 H 1351.27 3.07447 -2.45438 0
M  V30 14332 H 1353.29 4.3361 -2.4124 0
M  V30 14333 N 1352.46 1.37696 0.766659 0
M  V30 14334 C 1353.69 1.36192 1.55355 0
M  V30 14335 C 1354.1 -0.0534148 1.89125 0
M  V30 14336 O 1353.44 -1.02697 1.52312 0
M  V30 14337 C 1353.5 2.14047 2.88833 0
M  V30 14338 C 1353.17 3.6297 2.77672 0
M  V30 14339 C 1354.17 4.56745 2.48355 0
M  V30 14340 C 1351.85 4.06158 2.95534 0
M  V30 14341 C 1353.84 5.91687 2.37035 0
M  V30 14342 C 1351.53 5.41185 2.83835 0
M  V30 14343 C 1352.53 6.33762 2.54627 0
M  V30 14344 O 1352.22 7.66305 2.42963 0
M  V30 14345 H 1351.95 0.46804 0.487765 0
M  V30 14346 H 1354.5 1.81709 0.95765 0
M  V30 14347 H 1352.73 1.63227 3.50562 0
M  V30 14348 H 1354.42 2.05113 3.50262 0
M  V30 14349 H 1355.19 4.24687 2.34236 0
M  V30 14350 H 1351.07 3.34457 3.17269 0
M  V30 14351 H 1354.61 6.63914 2.14158 0
M  V30 14352 H 1350.51 5.72844 2.97524 0
M  V30 14353 H 1351.28 7.76683 2.58274 0
M  V30 14354 N 1353.94 -0.993397 1.22349 0
M  V30 14355 C 1355.22 -1.7063 0.956275 0
M  V30 14356 C 1355.6 -2.0437 -0.52877 0
M  V30 14357 O 1354.94 -1.72662 -1.49667 0
M  V30 14358 C 1355.15 -2.95725 1.85331 0
M  V30 14359 C 1356.5 -3.68514 2.10909 0
M  V30 14360 O 1357.53 -3.05732 1.82775 0
M  V30 14361 O 1356.39 -4.81468 2.58556 0
M  V30 14362 H 1353.48 -0.744734 0.359583 0
M  V30 14363 H 1356.03 -1.04979 1.33333 0
M  V30 14364 H 1354.8 -2.6729 2.85782 0
M  V30 14365 H 1354.42 -3.69116 1.47781 0
M  V30 14366 N 1355.42 -1.03311 -1.19015 0
M  V30 14367 C 1356.83 -0.761079 -1.70483 0
M  V30 14368 C 1357.18 0.718851 -1.82557 0
M  V30 14369 O 1356.3 1.56006 -1.4997 0
M  V30 14370 C 1356.9 -1.37492 -3.09647 0
M  V30 14371 C 1355.46 -1.15138 -3.58358 0
M  V30 14372 C 1354.61 -1.47034 -2.35109 0
M  V30 14373 H 1357.56 -1.2005 -1.03797 0
M  V30 14374 H 1357.58 -0.774115 -3.72542 0
M  V30 14375 H 1357.09 -2.45203 -3.00828 0
M  V30 14376 H 1355.19 -0.0926822 -3.72485 0
M  V30 14377 H 1355.3 -1.84307 -4.4223 0
M  V30 14378 H 1353.67 -0.889794 -2.38652 0
M  V30 14379 H 1354.45 -2.55837 -2.28916 0
M  V30 14380 N 1356.9 1.35099 -0.81154 0
M  V30 14381 C 1358.12 2.0286 -0.406855 0
M  V30 14382 C 1358.54 1.61147 0.98372 0
M  V30 14383 O 1357.9 0.811398 1.6347 0
M  V30 14384 C 1357.95 3.58214 -0.486305 0
M  V30 14385 O 1357.67 3.98412 -1.82206 0
M  V30 14386 C 1359.17 4.43236 -0.0750619 0
M  V30 14387 H 1356.39 0.650482 -0.164664 0
M  V30 14388 H 1358.93 1.72616 -1.09654 0
M  V30 14389 H 1357.09 3.87089 0.155177 0
M  V30 14390 H 1357.5 4.93072 -1.78831 0
M  V30 14391 H 1358.98 5.51701 -0.181759 0
M  V30 14392 H 1359.45 4.28123 0.980169 0
M  V30 14393 H 1360.06 4.19667 -0.689894 0
M  V30 14394 N 1358.37 0.56548 1.47106 0
M  V30 14395 C 1359.32 -0.190542 2.31818 0
M  V30 14396 C 1360.32 -0.901279 1.43434 0
M  V30 14397 O 1361.52 -0.821625 1.60154 0
M  V30 14398 H 1357.9 -0.0803183 0.747698 0
M  V30 14399 H 1359.87 0.542999 2.93418 0
M  V30 14400 C 1358.62 -1.20208 3.2626 0
M  V30 14401 H 1357.94 -0.664608 3.94237 0
M  V30 14402 H 1359.38 -1.7018 3.88349 0
M  V30 14403 C 1357.84 -2.25423 2.50372 0
M  V30 14404 O 1358.37 -3.3249 2.25418 0
M  V30 14405 N 1356.57 -1.9957 2.11235 0
M  V30 14406 H 1356.12 -1.12513 2.31729 0
M  V30 14407 H 1356.08 -2.70182 1.60777 0
M  V30 14408 N 1359.85 -1.54672 0.302354 0
M  V30 14409 C 1361.13 -1.92264 -0.359711 0
M  V30 14410 C 1361.51 -1.22973 -1.71583 0
M  V30 14411 O 1360.86 -0.365942 -2.25551 0
M  V30 14412 C 1361.07 -3.4578 -0.473019 0
M  V30 14413 C 1362.42 -4.18044 -0.743252 0
M  V30 14414 O 1363.44 -3.51822 -0.556778 0
M  V30 14415 O 1362.3 -5.35283 -1.10155 0
M  V30 14416 H 1359.39 -0.802112 -0.201359 0
M  V30 14417 H 1361.94 -1.66041 0.350513 0
M  V30 14418 H 1360.71 -3.88342 0.480265 0
M  V30 14419 H 1360.33 -3.78042 -1.23166 0
M  V30 14420 N 1361.33 -0.0301034 -1.57571 0
M  V30 14421 C 1362.58 0.647042 -1.91462 0
M  V30 14422 C 1362.9 1.72612 -0.907206 0
M  V30 14423 O 1362.17 1.95833 0.0511268 0
M  V30 14424 H 1360.75 0.241988 -0.706718 0
M  V30 14425 H 1363.41 -0.0781385 -1.94743 0
M  V30 14426 H 1362.51 1.09915 -2.92105 0
M  V30 14427 N 1362.81 1.55714 0.243056 0
M  V30 14428 C 1364.04 1.81786 0.98801 0
M  V30 14429 C 1364.45 0.606352 1.78798 0
M  V30 14430 O 1363.81 -0.425018 1.77482 0
M  V30 14431 C 1363.86 3.06121 1.92281 0
M  V30 14432 O 1363.58 4.22595 1.15521 0
M  V30 14433 C 1365.08 3.45021 2.78344 0
M  V30 14434 H 1362.3 0.604829 0.290557 0
M  V30 14435 H 1364.85 2.02779 0.26478 0
M  V30 14436 H 1363 2.87167 2.60027 0
M  V30 14437 H 1363.41 4.93088 1.78786 0
M  V30 14438 H 1364.89 4.35112 3.39678 0
M  V30 14439 H 1365.37 2.65782 3.49652 0
M  V30 14440 H 1365.97 3.66339 2.16045 0
M  V30 14441 N 1364.29 -0.50888 1.49158 0
M  V30 14442 C 1365.53 -1.261 1.57934 0
M  V30 14443 C 1365.86 -1.93199 0.264405 0
M  V30 14444 O 1365.13 -1.82359 -0.715684 0
M  V30 14445 H 1363.71 -0.468421 0.581886 0
M  V30 14446 H 1366.37 -0.590447 1.85741 0
M  V30 14447 H 1365.46 -2.02913 2.37135 0
M  V30 14448 N 1365.76 -1.381 -0.759346 0
M  V30 14449 C 1366.67 -1.37086 -1.9038 0
M  V30 14450 C 1367.69 -0.268738 -1.71912 0
M  V30 14451 O 1368.87 -0.506205 -1.94935 0
M  V30 14452 C 1365.93 -1.18905 -3.25672 0
M  V30 14453 C 1364.99 -2.3887 -3.56707 0
M  V30 14454 C 1364.23 -2.21546 -4.85544 0
M  V30 14455 O 1364.45 -1.20616 -5.57501 0
M  V30 14456 O 1363.38 -3.10009 -5.15924 0
M  V30 14457 H 1367.21 -2.33505 -1.94188 0
M  V30 14458 H 1364.79 -1.18959 -0.903826 0
M  V30 14459 H 1366.68 -1.10803 -4.06572 0
M  V30 14460 H 1365.35 -0.255675 -3.22689 0
M  V30 14461 H 1364.26 -2.52546 -2.75992 0
M  V30 14462 H 1365.59 -3.30817 -3.64446 0
M  V30 14463 N 1367.24 0.986894 -1.22875 0
M  V30 14464 C 1368.18 2.07604 -0.947406 0
M  V30 14465 C 1369.15 1.62214 0.111904 0
M  V30 14466 O 1370.34 1.88488 -0.0209682 0
M  V30 14467 C 1367.46 3.3601 -0.42605 0
M  V30 14468 C 1366.51 4.00331 -1.47097 0
M  V30 14469 S 1367.34 4.40412 -3.04627 0
M  V30 14470 C 1368.5 5.7198 -2.54145 0
M  V30 14471 H 1368.73 2.31149 -1.86969 0
M  V30 14472 H 1366.27 1.1222 -1.06047 0
M  V30 14473 H 1368.22 4.10288 -0.131846 0
M  V30 14474 H 1366.88 3.10484 0.475211 0
M  V30 14475 H 1366.08 4.92809 -1.05618 0
M  V30 14476 H 1365.68 3.32403 -1.71418 0
M  V30 14477 H 1367.97 6.48602 -1.9576 0
M  V30 14478 H 1368.91 6.18293 -3.45137 0
M  V30 14479 H 1369.32 5.29669 -1.95221 0
M  V30 14480 N 1368.72 1.0394 1.18466 0
M  V30 14481 C 1369.97 0.743141 1.88694 0
M  V30 14482 C 1370.3 -0.727211 1.8007 0
M  V30 14483 O 1369.57 -1.53058 1.20014 0
M  V30 14484 C 1369.86 1.20829 3.39223 0
M  V30 14485 C 1369.71 2.74064 3.56664 0
M  V30 14486 C 1371.03 0.797348 4.32817 0
M  V30 14487 H 1368.15 0.271437 0.685194 0
M  V30 14488 H 1370.79 1.29119 1.39386 0
M  V30 14489 H 1368.94 0.742033 3.81348 0
M  V30 14490 H 1370.61 3.28717 3.2364 0
M  V30 14491 H 1368.86 3.1395 2.99362 0
M  V30 14492 H 1369.53 3.01668 4.62277 0
M  V30 14493 H 1372 1.19854 3.98465 0
M  V30 14494 H 1370.88 1.15057 5.36706 0
M  V30 14495 H 1371.14 -0.299601 4.41084 0
M  V30 14496 N 1370.2 -1.34667 0.818693 0
M  V30 14497 C 1371.16 -2.27908 0.243037 0
M  V30 14498 C 1372.16 -1.50106 -0.576622 0
M  V30 14499 O 1373.35 -1.69701 -0.393342 0
M  V30 14500 C 1370.48 -3.34455 -0.659759 0
M  V30 14501 H 1371.68 -2.80332 1.06555 0
M  V30 14502 H 1369.23 -1.44727 0.590237 0
M  V30 14503 H 1369.96 -2.87238 -1.50549 0
M  V30 14504 H 1369.75 -3.92031 -0.073567 0
M  V30 14505 H 1371.24 -4.04016 -1.05646 0
M  V30 14506 N 1371.68 -0.573274 -1.46804 0
M  V30 14507 C 1372.92 -0.0553432 -2.02724 0
M  V30 14508 C 1373.26 1.29753 -1.44492 0
M  V30 14509 O 1372.53 1.84804 -0.606455 0
M  V30 14510 C 1372.81 0.0205511 -3.60094 0
M  V30 14511 C 1372.67 -1.36055 -4.2873 0
M  V30 14512 C 1373.99 0.725944 -4.34071 0
M  V30 14513 H 1371.1 -0.0215858 -0.736684 0
M  V30 14514 H 1373.75 -0.738657 -1.75054 0
M  V30 14515 H 1371.9 0.602481 -3.838 0
M  V30 14516 H 1373.57 -1.98692 -4.16316 0
M  V30 14517 H 1371.81 -1.93087 -3.88458 0
M  V30 14518 H 1372.48 -1.26001 -5.37427 0
M  V30 14519 H 1374.96 0.231677 -4.15455 0
M  V30 14520 H 1373.83 0.74805 -5.43779 0
M  V30 14521 H 1374.1 1.78536 -4.04447 0
M  V30 14522 N 1373.15 1.5451 -0.310553 0
M  V30 14523 C 1374.1 2.23871 0.561277 0
M  V30 14524 C 1375.07 1.22475 1.12202 0
M  V30 14525 O 1376.26 1.51121 1.16477 0
M  V30 14526 C 1373.4 2.99029 1.72267 0
M  V30 14527 C 1372.51 4.15218 1.19241 0
M  V30 14528 C 1371.64 4.77935 2.31843 0
M  V30 14529 C 1370.68 5.86251 1.75999 0
M  V30 14530 N 1369.82 6.42885 2.82212 0
M  V30 14531 H 1374.66 2.97977 -0.0367998 0
M  V30 14532 H 1372.2 1.4707 -0.0299317 0
M  V30 14533 H 1374.16 3.40842 2.40588 0
M  V30 14534 H 1372.79 2.27281 2.29223 0
M  V30 14535 H 1371.84 3.78279 0.401148 0
M  V30 14536 H 1373.15 4.93225 0.743675 0
M  V30 14537 H 1372.3 5.2265 3.08094 0
M  V30 14538 H 1371.04 3.99281 2.80047 0
M  V30 14539 H 1370.05 5.40952 0.982415 0
M  V30 14540 H 1371.27 6.66795 1.28688 0
M  V30 14541 H 1369.22 5.67109 3.29732 0
M  V30 14542 H 1369.14 7.16267 2.41864 0
M  V30 14543 H 1370.4 6.92256 3.58332 0
M  V30 14544 N 1374.63 0.0384594 1.57553 0
M  V30 14545 C 1375.6 -0.925358 2.0969 0
M  V30 14546 C 1376.6 -1.24811 1.01385 0
M  V30 14547 O 1377.79 -1.1869 1.27508 0
M  V30 14548 C 1374.92 -2.2391 2.57055 0
M  V30 14549 H 1376.11 -0.473633 2.96136 0
M  V30 14550 H 1373.66 -0.209736 1.54886 0
M  V30 14551 H 1374.4 -2.73691 1.73964 0
M  V30 14552 H 1374.18 -2.01793 3.36188 0
M  V30 14553 H 1375.67 -2.92974 2.97583 0
M  V30 14554 N 1376.11 -1.55841 -0.234795 0
M  V30 14555 C 1377.04 -1.94344 -1.29432 0
M  V30 14556 C 1378.02 -0.809912 -1.49581 0
M  V30 14557 O 1379.21 -1.07117 -1.61986 0
M  V30 14558 C 1376.34 -2.24866 -2.64675 0
M  V30 14559 C 1375.29 -3.40584 -2.59203 0
M  V30 14560 C 1374.62 -3.56678 -3.98353 0
M  V30 14561 C 1375.92 -4.75935 -2.15135 0
M  V30 14562 H 1377.61 -2.83096 -0.97454 0
M  V30 14563 H 1375.16 -1.36205 -0.467355 0
M  V30 14564 H 1377.11 -2.50392 -3.38942 0
M  V30 14565 H 1375.83 -1.32953 -2.98314 0
M  V30 14566 H 1374.49 -3.15087 -1.87393 0
M  V30 14567 H 1374.14 -2.62164 -4.29277 0
M  V30 14568 H 1373.84 -4.34503 -3.95577 0
M  V30 14569 H 1375.37 -3.84538 -4.74302 0
M  V30 14570 H 1376.78 -5.00753 -2.7914 0
M  V30 14571 H 1375.18 -5.56949 -2.23446 0
M  V30 14572 H 1376.25 -4.72182 -1.10328 0
M  V30 14573 N 1377.59 0.500963 -1.49426 0
M  V30 14574 C 1378.54 1.6025 -1.66098 0
M  V30 14575 C 1379.51 1.58318 -0.502453 0
M  V30 14576 O 1380.69 1.76304 -0.729482 0
M  V30 14577 C 1377.83 2.98396 -1.73361 0
M  V30 14578 C 1376.94 3.10343 -3.00518 0
M  V30 14579 C 1376.08 4.39222 -2.9876 0
M  V30 14580 C 1375.12 4.44803 -4.20496 0
M  V30 14581 N 1374.26 5.6511 -4.16648 0
M  V30 14582 H 1379.1 1.45342 -2.60153 0
M  V30 14583 H 1376.63 0.707147 -1.28988 0
M  V30 14584 H 1378.59 3.78467 -1.75553 0
M  V30 14585 H 1377.22 3.12007 -0.827718 0
M  V30 14586 H 1376.27 2.23336 -3.07937 0
M  V30 14587 H 1377.58 3.10327 -3.90511 0
M  V30 14588 H 1376.74 5.27613 -2.99515 0
M  V30 14589 H 1375.48 4.41804 -2.06545 0
M  V30 14590 H 1374.48 3.54814 -4.19985 0
M  V30 14591 H 1375.71 4.43937 -5.13903 0
M  V30 14592 H 1373.65 5.68533 -3.2727 0
M  V30 14593 H 1373.57 5.6671 -5.00376 0
M  V30 14594 H 1374.84 6.55708 -4.21506 0
M  V30 14595 N 1379.07 1.38501 0.752011 0
M  V30 14596 C 1380.03 1.35655 1.84744 0
M  V30 14597 C 1381.03 0.256772 1.58737 0
M  V30 14598 O 1382.22 0.513749 1.66452 0
M  V30 14599 C 1379.35 1.11231 3.22243 0
M  V30 14600 H 1380.55 2.33114 1.88674 0
M  V30 14601 H 1378.1 1.23818 0.953882 0
M  V30 14602 H 1378.83 0.143848 3.23981 0
M  V30 14603 H 1378.62 1.90857 3.42515 0
M  V30 14604 H 1380.11 1.11939 4.02318 0
M  V30 14605 N 1380.55 -0.980364 1.23396 0
M  V30 14606 C 1381.82 -1.69607 0.974319 0
M  V30 14607 C 1382.2 -2.0492 -0.507064 0
M  V30 14608 O 1381.55 -1.74239 -1.47827 0
M  V30 14609 C 1381.76 -2.93743 1.88457 0
M  V30 14610 C 1383.11 -3.66256 2.14806 0
M  V30 14611 O 1384.13 -3.03776 1.86007 0
M  V30 14612 O 1382.99 -4.78698 2.63648 0
M  V30 14613 H 1380.09 -0.740878 0.367462 0
M  V30 14614 H 1382.63 -1.03558 1.34439 0
M  V30 14615 H 1381.4 -2.64244 2.88601 0
M  V30 14616 H 1381.03 -3.67528 1.51688 0
M  V30 14617 N 1382.02 -1.04567 -1.17913 0
M  V30 14618 C 1383.26 -0.760977 -1.89706 0
M  V30 14619 C 1383.63 0.698804 -1.78832 0
M  V30 14620 O 1384.83 1.09733 -2.45382 0
M  V30 14621 C 1383.1 -1.22042 -3.35917 0
M  V30 14622 S 1384.66 -1.06214 -4.25751 0
M  V30 14623 H 1381.48 -0.276538 -0.655017 0
M  V30 14624 H 1384.08 -1.339 -1.42446 0
M  V30 14625 H 1382.78 -2.27813 -3.41364 0
M  V30 14626 H 1382.31 -0.636401 -3.88218 0
M  V30 14627 H 1384.33 0.0174486 -4.96197 0
M  V30 14628 N 1383.5 1.34231 -0.825823 0
M  V30 14629 C 1384.75 1.97805 -0.414456 0
M  V30 14630 C 1385.07 1.65786 1.02664 0
M  V30 14631 O 1384.34 0.950069 1.7132 0
M  V30 14632 H 1382.92 0.73173 -0.150265 0
M  V30 14633 H 1385.58 1.63819 -1.05591 0
M  V30 14634 H 1384.68 3.07466 -0.535829 0
M  V30 14635 N 1384.98 0.581051 1.46498 0
M  V30 14636 C 1386.39 0.154032 1.86064 0
M  V30 14637 C 1386.74 -1.28247 1.48483 0
M  V30 14638 O 1385.87 -1.96845 0.898945 0
M  V30 14639 C 1386.46 0.272764 3.377 0
M  V30 14640 C 1385.02 -0.0993724 3.76269 0
M  V30 14641 C 1384.17 0.60947 2.70519 0
M  V30 14642 H 1387.12 0.78937 1.37676 0
M  V30 14643 H 1387.14 -0.502326 3.7717 0
M  V30 14644 H 1386.65 1.31837 3.65021 0
M  V30 14645 H 1384.75 -1.14517 3.54565 0
M  V30 14646 H 1384.87 0.275791 4.78306 0
M  V30 14647 H 1383.23 0.0499083 2.54651 0
M  V30 14648 H 1384.01 1.65669 3.0068 0
M  V30 14649 N 1386.46 -1.54343 0.318742 0
M  V30 14650 C 1387.39 -2.21652 -0.583351 0
M  V30 14651 C 1388.4 -1.21494 -1.08366 0
M  V30 14652 O 1389.59 -1.4799 -0.998064 0
M  V30 14653 C 1386.69 -2.86349 -1.81266 0
M  V30 14654 C 1385.86 -4.12601 -1.45186 0
M  V30 14655 C 1384.92 -4.60937 -2.53818 0
M  V30 14656 O 1383.95 -5.25731 -2.18164 0
M  V30 14657 N 1385.15 -4.34755 -3.84667 0
M  V30 14658 H 1387.92 -2.99699 -0.00703539 0
M  V30 14659 H 1385.48 -1.61278 0.141728 0
M  V30 14660 H 1387.47 -3.15611 -2.53321 0
M  V30 14661 H 1386.04 -2.12037 -2.29693 0
M  V30 14662 H 1385.26 -3.90157 -0.563143 0
M  V30 14663 H 1386.55 -4.94774 -1.18642 0
M  V30 14664 H 1385.95 -3.82883 -4.16434 0
M  V30 14665 H 1384.5 -4.68683 -4.52967 0
M  V30 14666 N 1387.94 -0.0468143 -1.5753 0
M  V30 14667 C 1388.89 0.938619 -2.07783 0
M  V30 14668 C 1389.87 1.27454 -0.982057 0
M  V30 14669 O 1391.06 1.25769 -1.24544 0
M  V30 14670 C 1388.19 2.21499 -2.62285 0
M  V30 14671 C 1387.28 1.90665 -3.78824 0
M  V30 14672 N 1387.67 1.30174 -4.88762 0
M  V30 14673 C 1385.97 2.20559 -3.87646 0
M  V30 14674 C 1386.67 1.16872 -5.69838 0
M  V30 14675 N 1385.64 1.67016 -5.17307 0
M  V30 14676 H 1389.44 0.466179 -2.90179 0
M  V30 14677 H 1386.96 0.157752 -1.61632 0
M  V30 14678 H 1388.96 2.92987 -2.96588 0
M  V30 14679 H 1387.62 2.69353 -1.81326 0
M  V30 14680 H 1388.63 0.974495 -5.08649 0
M  V30 14681 H 1385.3 2.70964 -3.17623 0
M  V30 14682 H 1386.69 0.699463 -6.68249 0
M  V30 14683 N 1389.41 1.55964 0.226527 0
M  V30 14684 C 1390.83 1.48844 0.575999 0
M  V30 14685 C 1391.03 0.740966 1.87382 0
M  V30 14686 O 1390.09 0.278599 2.50958 0
M  V30 14687 C 1391.4 2.93371 0.65984 0
M  V30 14688 C 1392.95 3.03862 0.750802 0
M  V30 14689 C 1393.42 4.49738 0.86603 0
M  V30 14690 N 1394.91 4.5376 0.930379 0
M  V30 14691 C 1395.65 5.63905 1.03916 0
M  V30 14692 N 1395.14 6.83814 1.1122 0
M  V30 14693 N 1396.94 5.51746 1.07391 0
M  V30 14694 H 1389.09 2.02991 -0.625179 0
M  V30 14695 H 1391.35 0.922435 -0.218674 0
M  V30 14696 H 1391.06 3.50985 -0.22411 0
M  V30 14697 H 1390.93 3.44994 1.52509 0
M  V30 14698 H 1393.32 2.46316 1.6252 0
M  V30 14699 H 1393.4 2.55416 -0.140019 0
M  V30 14700 H 1393.04 5.079 -0.00388632 0
M  V30 14701 H 1392.97 4.95884 1.77219 0
M  V30 14702 H 1395.46 3.67404 0.884451 0
M  V30 14703 H 1395.78 7.63507 1.19484 0
M  V30 14704 H 1394.12 6.86535 1.08142 0
M  V30 14705 H 1397.31 4.56997 1.01347 0
M  V30 14706 H 1397.49 6.37619 1.15523 0
M  V30 14707 N 1390.89 -0.493031 1.4969 0
M  V30 14708 C 1392.12 -1.27517 1.63567 0
M  V30 14709 C 1392.54 -1.85526 0.310105 0
M  V30 14710 O 1391.9 -1.66246 -0.723314 0
M  V30 14711 C 1391.95 -2.37551 2.71296 0
M  V30 14712 O 1391.05 -3.41617 2.31023 0
M  V30 14713 H 1390.39 -0.376116 0.547205 0
M  V30 14714 H 1392.92 -0.589328 1.95929 0
M  V30 14715 H 1392.93 -2.83196 2.93708 0
M  V30 14716 H 1391.61 -1.94697 3.67513 0
M  V30 14717 H 1390.19 -3.01836 2.18974 0
M  V30 14718 N 1392.37 -1.38898 -0.744656 0
M  V30 14719 C 1393.62 -1.35327 -1.50104 0
M  V30 14720 C 1393.94 0.0532788 -1.94927 0
M  V30 14721 O 1393.21 1.0027 -1.68294 0
M  V30 14722 H 1391.79 -0.49797 -0.556808 0
M  V30 14723 H 1394.45 -1.73667 -0.884625 0
M  V30 14724 H 1393.55 -2.00983 -2.38773 0
M  V30 14725 N 1393.85 0.973806 -1.23914 0
M  V30 14726 C 1395.09 1.71927 -1.08685 0
M  V30 14727 C 1395.45 1.88781 0.371428 0
M  V30 14728 O 1394.74 1.43378 1.27095 0
M  V30 14729 C 1394.94 3.11441 -1.75326 0
M  V30 14730 C 1394.77 3.08196 -3.27483 0
M  V30 14731 C 1393.54 3.13018 -3.96671 0
M  V30 14732 C 1395.73 2.90848 -4.2416 0
M  V30 14733 N 1393.72 2.99727 -5.35758 0
M  V30 14734 C 1395.09 2.85789 -5.50204 0
M  V30 14735 C 1397.14 2.75382 -4.14812 0
M  V30 14736 C 1395.84 2.66847 -6.67971 0
M  V30 14737 C 1397.87 2.57806 -5.3225 0
M  V30 14738 C 1397.23 2.53451 -6.57223 0
M  V30 14739 H 1393.33 0.637935 -0.452286 0
M  V30 14740 H 1395.92 1.15502 -1.5674 0
M  V30 14741 H 1394.09 3.66071 -1.29794 0
M  V30 14742 H 1395.82 3.74659 -1.53012 0
M  V30 14743 H 1392.57 3.21458 -3.47795 0
M  V30 14744 H 1393 2.96339 -6.08697 0
M  V30 14745 H 1397.64 2.77535 -3.18958 0
M  V30 14746 H 1395.36 2.63438 -7.63954 0
M  V30 14747 H 1398.94 2.46793 -5.26863 0
M  V30 14748 H 1397.82 2.40023 -7.46565 0
M  V30 14749 N 1395.33 1.05191 1.17357 0
M  V30 14750 C 1396.27 0.652868 2.21374 0
M  V30 14751 C 1397.24 -0.344974 1.62478 0
M  V30 14752 O 1398.43 -0.23639 1.8933 0
M  V30 14753 C 1395.57 0.0337737 3.45083 0
M  V30 14754 C 1394.68 1.08045 4.18271 0
M  V30 14755 C 1393.82 0.428673 5.29468 0
M  V30 14756 C 1392.86 1.45966 5.94441 0
M  V30 14757 N 1391.99 0.832042 6.97152 0
M  V30 14758 H 1396.83 1.54434 2.54861 0
M  V30 14759 H 1394.37 0.772365 1.25192 0
M  V30 14760 H 1396.33 -0.342607 4.15791 0
M  V30 14761 H 1394.96 -0.821159 3.12181 0
M  V30 14762 H 1394.01 1.57466 3.46278 0
M  V30 14763 H 1395.32 1.86305 4.62701 0
M  V30 14764 H 1394.48 -0.00129344 6.067 0
M  V30 14765 H 1393.21 -0.385919 4.86171 0
M  V30 14766 H 1392.22 1.89964 5.1594 0
M  V30 14767 H 1393.44 2.27615 6.39819 0
M  V30 14768 H 1391.39 0.0379612 6.55989 0
M  V30 14769 H 1391.31 1.55219 7.39894 0
M  V30 14770 H 1392.58 0.42685 7.7833 0
M  V30 14771 N 1396.8 -1.33791 0.83293 0
M  V30 14772 C 1397.74 -2.28148 0.219336 0
M  V30 14773 C 1398.75 -1.51477 -0.596529 0
M  V30 14774 O 1399.94 -1.73377 -0.424571 0
M  V30 14775 C 1397.04 -3.31373 -0.710305 0
M  V30 14776 C 1396.21 -4.37352 0.0649215 0
M  V30 14777 C 1395.27 -5.20279 -0.78716 0
M  V30 14778 O 1394.3 -5.68741 -0.228511 0
M  V30 14779 N 1395.5 -5.40973 -2.10544 0
M  V30 14780 H 1398.26 -2.81443 1.03004 0
M  V30 14781 H 1395.82 -1.46421 0.690831 0
M  V30 14782 H 1397.82 -3.83752 -1.28517 0
M  V30 14783 H 1396.39 -2.78398 -1.42173 0
M  V30 14784 H 1395.61 -3.85553 0.821144 0
M  V30 14785 H 1396.89 -5.05271 0.598199 0
M  V30 14786 H 1396.29 -5.03291 -2.58292 0
M  V30 14787 H 1394.85 -5.96432 -2.62893 0
M  V30 14788 N 1398.28 -0.588812 -1.46187 0
M  V30 14789 C 1399.19 0.143253 -2.34162 0
M  V30 14790 C 1400.21 0.879779 -1.5012 0
M  V30 14791 O 1401.38 0.841592 -1.82973 0
M  V30 14792 C 1398.45 1.14017 -3.27416 0
M  V30 14793 C 1397.51 0.407651 -4.2736 0
M  V30 14794 C 1396.74 1.35708 -5.16158 0
M  V30 14795 O 1396.97 2.59394 -5.08007 0
M  V30 14796 O 1395.9 0.864343 -5.95662 0
M  V30 14797 H 1399.73 -0.579228 -2.98125 0
M  V30 14798 H 1397.31 -0.349174 -1.45262 0
M  V30 14799 H 1399.19 1.71484 -3.8493 0
M  V30 14800 H 1397.87 1.84401 -2.66041 0
M  V30 14801 H 1396.78 -0.209011 -3.73516 0
M  V30 14802 H 1398.11 -0.255334 -4.91537 0
M  V30 14803 N 1399.76 1.54172 -0.326923 0
M  V30 14804 C 1401.01 1.99809 0.275554 0
M  V30 14805 C 1401.32 1.21886 1.52981 0
M  V30 14806 O 1402.53 1.57917 2.20849 0
M  V30 14807 C 1400.98 3.55802 0.541543 0
M  V30 14808 C 1400.59 4.42563 -0.695853 0
M  V30 14809 C 1402.34 4.09898 1.10379 0
M  V30 14810 C 1400.24 5.90035 -0.401581 0
M  V30 14811 H 1399.17 0.746406 0.106742 0
M  V30 14812 H 1401.82 1.78155 -0.439669 0
M  V30 14813 H 1400.21 3.73457 1.31704 0
M  V30 14814 H 1401.38 4.36684 -1.47118 0
M  V30 14815 H 1399.7 3.99373 -1.17855 0
M  V30 14816 H 1402.29 5.17672 1.33863 0
M  V30 14817 H 1402.64 3.62089 2.0542 0
M  V30 14818 H 1403.17 3.9589 0.389395 0
M  V30 14819 H 1399.91 6.42046 -1.32126 0
M  V30 14820 H 1399.43 5.98858 0.335977 0
M  V30 14821 H 1401.11 6.46999 -0.0126539 0
M  V30 14822 N 1401.24 0.0551678 1.57503 0
M  V30 14823 C 1402.52 -0.657808 1.84207 0
M  V30 14824 C 1402.9 -1.88798 0.944372 0
M  V30 14825 O 1402.24 -2.28499 0.00641728 0
M  V30 14826 C 1402.45 -1.0113 3.34026 0
M  V30 14827 C 1403.8 -1.39189 4.01138 0
M  V30 14828 O 1404.83 -1.10353 3.38675 0
M  V30 14829 O 1403.68 -1.93023 5.11277 0
M  V30 14830 H 1400.78 -0.325084 0.760427 0
M  V30 14831 H 1403.32 0.0848352 1.69488 0
M  V30 14832 H 1402.1 -0.13688 3.91061 0
M  V30 14833 H 1401.72 -1.81126 3.53948 0
M  V30 14834 N 1402.72 -1.56081 -0.218252 0
M  V30 14835 C 1403.97 -1.78445 -0.94022 0
M  V30 14836 C 1404.28 -0.624317 -1.85369 0
M  V30 14837 O 1405.48 -0.731669 -2.61455 0
M  V30 14838 C 1403.94 -3.16026 -1.72208 0
M  V30 14839 C 1403.55 -4.39774 -0.854584 0
M  V30 14840 C 1405.29 -3.47714 -2.43506 0
M  V30 14841 C 1403.2 -5.68379 -1.63398 0
M  V30 14842 H 1402.13 -0.665303 -0.354806 0
M  V30 14843 H 1404.78 -1.82471 -0.194021 0
M  V30 14844 H 1403.16 -3.06185 -2.5113 0
M  V30 14845 H 1404.34 -4.60679 -0.105659 0
M  V30 14846 H 1402.65 -4.15627 -0.253562 0
M  V30 14847 H 1405.25 -4.41026 -3.02325 0
M  V30 14848 H 1405.59 -2.70367 -3.16555 0
M  V30 14849 H 1406.12 -3.58899 -1.71571 0
M  V30 14850 H 1402.86 -6.48628 -0.946704 0
M  V30 14851 H 1402.38 -5.5153 -2.35743 0
M  V30 14852 H 1404.06 -6.08672 -2.1938 0
M  V30 14853 N 1404.2 0.485086 -1.49949 0
M  V30 14854 C 1405.13 1.59312 -1.7071 0
M  V30 14855 C 1406.11 1.6076 -0.555896 0
M  V30 14856 O 1407.29 1.77249 -0.793504 0
M  V30 14857 C 1404.42 2.97718 -1.78834 0
M  V30 14858 C 1403.38 3.11136 -2.93902 0
M  V30 14859 C 1402.7 4.51051 -2.87154 0
M  V30 14860 C 1404 2.89665 -4.34617 0
M  V30 14861 H 1405.7 1.42192 -2.6348 0
M  V30 14862 H 1403.24 0.68262 -1.26792 0
M  V30 14863 H 1405.19 3.75148 -1.91943 0
M  V30 14864 H 1403.92 3.15963 -0.826744 0
M  V30 14865 H 1402.58 2.36135 -2.80421 0
M  V30 14866 H 1402.23 4.66195 -1.88869 0
M  V30 14867 H 1401.93 4.60967 -3.64394 0
M  V30 14868 H 1403.45 5.3052 -3.02293 0
M  V30 14869 H 1404.86 3.56853 -4.48697 0
M  V30 14870 H 1403.26 3.11039 -5.13201 0
M  V30 14871 H 1404.33 1.85642 -4.47956 0
M  V30 14872 N 1405.67 1.39291 0.737279 0
M  V30 14873 C 1407.09 1.20845 1.04253 0
M  V30 14874 C 1407.29 0.0684513 2.01384 0
M  V30 14875 O 1406.35 -0.580615 2.45734 0
M  V30 14876 C 1407.66 2.54158 1.60699 0
M  V30 14877 C 1409.21 2.60983 1.72791 0
M  V30 14878 C 1409.68 3.94511 2.32647 0
M  V30 14879 N 1411.17 3.96138 2.4006 0
M  V30 14880 C 1411.91 4.96229 2.87306 0
M  V30 14881 N 1411.4 6.06716 3.34465 0
M  V30 14882 N 1413.2 4.83609 2.86494 0
M  V30 14883 H 1405.35 2.12196 0.0930416 0
M  V30 14884 H 1407.61 0.942289 0.103899 0
M  V30 14885 H 1407.32 3.38118 0.96795 0
M  V30 14886 H 1407.19 2.73715 2.59538 0
M  V30 14887 H 1409.58 1.77408 2.35818 0
M  V30 14888 H 1409.66 2.45278 0.726118 0
M  V30 14889 H 1409.3 4.78516 1.70249 0
M  V30 14890 H 1409.23 4.07536 3.33499 0
M  V30 14891 H 1411.72 3.16344 2.06725 0
M  V30 14892 H 1412.04 6.79002 3.6902 0
M  V30 14893 H 1410.38 6.10313 3.3248 0
M  V30 14894 H 1413.57 3.96396 2.48973 0
M  V30 14895 H 1413.75 5.6176 3.23001 0
M  V30 14896 N 1407.15 -0.967221 1.24429 0
M  V30 14897 C 1408.38 -1.7452 1.11133 0
M  V30 14898 C 1408.79 -1.85785 -0.336087 0
M  V30 14899 O 1408.15 -1.34652 -1.23188 0
M  V30 14900 C 1408.2 -3.16544 1.74591 0
M  V30 14901 O 1407.92 -3.05845 3.13673 0
M  V30 14902 C 1409.42 -4.10677 1.6691 0
M  V30 14903 H 1406.64 -0.547267 0.388253 0
M  V30 14904 H 1409.19 -1.2143 1.64545 0
M  V30 14905 H 1407.34 -3.66618 1.2518 0
M  V30 14906 H 1407.76 -3.95346 3.44676 0
M  V30 14907 H 1409.23 -5.07987 2.15992 0
M  V30 14908 H 1409.71 -4.34652 0.630411 0
M  V30 14909 H 1410.31 -3.66514 2.15749 0
M  V30 14910 N 1408.63 -1.05812 -1.16797 0
M  V30 14911 C 1409.56 -0.685778 -2.23202 0
M  V30 14912 C 1410.54 0.319428 -1.67074 0
M  V30 14913 O 1411.73 0.195635 -1.93212 0
M  V30 14914 C 1408.86 -0.0662958 -3.47237 0
M  V30 14915 C 1407.81 -0.996943 -4.16227 0
M  V30 14916 C 1407.14 -0.241015 -5.34157 0
M  V30 14917 C 1408.44 -2.32384 -4.67755 0
M  V30 14918 H 1410.13 -1.57535 -2.54604 0
M  V30 14919 H 1407.68 -0.758909 -1.22379 0
M  V30 14920 H 1409.63 0.206024 -4.20896 0
M  V30 14921 H 1408.35 0.858263 -3.15121 0
M  V30 14922 H 1407.01 -1.25393 -3.44488 0
M  V30 14923 H 1406.66 0.686508 -4.98293 0
M  V30 14924 H 1406.36 -0.861188 -5.81255 0
M  V30 14925 H 1407.88 0.0238739 -6.10595 0
M  V30 14926 H 1409.3 -2.11099 -5.3302 0
M  V30 14927 H 1407.69 -2.89855 -5.25456 0
M  V30 14928 H 1408.76 -2.958 -3.84227 0
M  V30 14929 N 1410.11 1.33347 -0.840014 0
M  V30 14930 C 1411.34 2.01659 -0.449141 0
M  V30 14931 C 1411.75 1.63353 0.954597 0
M  V30 14932 O 1411.09 0.843303 1.632 0
M  V30 14933 C 1411.15 3.56124 -0.491497 0
M  V30 14934 C 1410.81 4.17812 -1.85155 0
M  V30 14935 C 1411.81 4.37101 -2.81494 0
M  V30 14936 C 1409.5 4.54211 -2.1447 0
M  V30 14937 C 1411.49 4.91938 -4.05309 0
M  V30 14938 C 1409.18 5.08756 -3.38542 0
M  V30 14939 C 1410.18 5.27566 -4.33778 0
M  V30 14940 O 1409.86 5.8095 -5.55655 0
M  V30 14941 H 1409.6 0.652553 -0.176494 0
M  V30 14942 H 1412.15 1.71228 -1.13447 0
M  V30 14943 H 1410.38 3.85887 0.250613 0
M  V30 14944 H 1412.07 4.05728 -0.118288 0
M  V30 14945 H 1412.83 4.09328 -2.60146 0
M  V30 14946 H 1408.71 4.38864 -1.41135 0
M  V30 14947 H 1412.26 5.06536 -4.79654 0
M  V30 14948 H 1408.15 5.3596 -3.59746 0
M  V30 14949 H 1408.92 5.99363 -5.5741 0
M  V30 14950 N 1411.59 0.596556 1.45873 0
M  V30 14951 C 1412.54 -0.14991 2.27507 0
M  V30 14952 C 1413.52 -0.848942 1.36681 0
M  V30 14953 O 1414.71 -0.740752 1.60754 0
M  V30 14954 C 1411.84 -1.15391 3.23326 0
M  V30 14955 C 1410.93 -0.456283 4.21638 0
M  V30 14956 N 1411.32 0.495911 5.03363 0
M  V30 14957 C 1409.62 -0.705263 4.40389 0
M  V30 14958 C 1410.32 0.904941 5.74618 0
M  V30 14959 N 1409.29 0.251069 5.4302 0
M  V30 14960 H 1413.09 0.581593 2.88088 0
M  V30 14961 H 1410.61 0.419386 1.56891 0
M  V30 14962 H 1412.61 -1.70299 3.80531 0
M  V30 14963 H 1411.27 -1.88609 2.64305 0
M  V30 14964 H 1412.28 0.872126 5.10504 0
M  V30 14965 H 1408.95 -1.42296 3.92502 0
M  V30 14966 H 1410.34 1.68965 6.50308 0
M  V30 14967 N 1413.06 -1.53996 0.335095 0
M  V30 14968 C 1413.97 -2.28436 -0.534244 0
M  V30 14969 C 1414.99 -1.33224 -1.11926 0
M  V30 14970 O 1416.17 -1.66252 -1.13676 0
M  V30 14971 C 1413.23 -3.03634 -1.67354 0
M  V30 14972 C 1412.29 -4.14455 -1.11916 0
M  V30 14973 C 1411.52 -4.86058 -2.20416 0
M  V30 14974 O 1411.75 -4.57263 -3.40979 0
M  V30 14975 O 1410.68 -5.72704 -1.85185 0
M  V30 14976 H 1414.51 -3.03618 0.0706314 0
M  V30 14977 H 1412.09 -1.49062 0.100409 0
M  V30 14978 H 1413.97 -3.50687 -2.33659 0
M  V30 14979 H 1412.65 -2.31317 -2.26438 0
M  V30 14980 H 1411.56 -3.71725 -0.420871 0
M  V30 14981 H 1412.89 -4.8885 -0.573295 0
M  V30 14982 N 1414.54 -0.0635198 -1.57472 0
M  V30 14983 C 1415.49 0.916528 -2.08767 0
M  V30 14984 C 1416.48 1.26405 -0.99552 0
M  V30 14985 O 1417.67 1.24441 -1.25871 0
M  V30 14986 C 1414.8 2.18704 -2.64619 0
M  V30 14987 C 1413.88 1.86637 -3.80825 0
M  V30 14988 N 1414.27 1.24982 -4.90115 0
M  V30 14989 C 1412.57 2.16435 -3.89964 0
M  V30 14990 C 1413.27 1.10821 -5.71046 0
M  V30 14991 N 1412.25 1.61519 -5.1905 0
M  V30 14992 H 1416.05 0.435376 -2.90657 0
M  V30 14993 H 1413.56 0.1406 -1.6179 0
M  V30 14994 H 1415.56 2.89825 -2.99678 0
M  V30 14995 H 1414.22 2.67415 -1.84172 0
M  V30 14996 H 1415.23 0.920491 -5.09654 0
M  V30 14997 H 1411.91 2.6758 -3.20479 0
M  V30 14998 H 1413.3 0.628547 -6.68954 0
M  V30 14999 N 1416.02 1.56195 0.209972 0
M  V30 15000 C 1417.27 1.78941 0.930744 0
M  V30 15001 C 1417.58 0.634139 1.85035 0
M  V30 15002 O 1418.79 0.745524 2.61064 0
M  V30 15003 C 1417.24 3.16935 1.70529 0
M  V30 15004 C 1416.85 4.40221 0.83125 0
M  V30 15005 C 1418.6 3.49 2.41659 0
M  V30 15006 C 1416.5 5.69238 1.60381 0
M  V30 15007 H 1415.43 0.667176 0.351273 0
M  V30 15008 H 1418.08 1.82572 0.184341 0
M  V30 15009 H 1416.47 3.07513 2.49503 0
M  V30 15010 H 1417.64 4.60728 0.081227 0
M  V30 15011 H 1415.95 4.15756 0.231517 0
M  V30 15012 H 1418.55 4.42623 2.99982 0
M  V30 15013 H 1418.89 2.72042 3.15117 0
M  V30 15014 H 1419.43 3.59804 1.69665 0
M  V30 15015 H 1416.17 6.49121 0.912292 0
M  V30 15016 H 1415.69 5.52772 2.32815 0
M  V30 15017 H 1417.37 6.09827 2.16149 0
M  V30 15018 N 1417.5 -0.477127 1.50204 0
M  V30 15019 C 1418.75 -1.22639 1.60133 0
M  V30 15020 C 1419.06 -1.93218 0.304333 0
M  V30 15021 O 1420.27 -2.70027 0.282457 0
M  V30 15022 C 1418.72 -2.22807 2.82639 0
M  V30 15023 C 1418.33 -1.58059 4.19191 0
M  V30 15024 C 1420.07 -2.98413 3.01911 0
M  V30 15025 C 1417.98 -2.56478 5.32891 0
M  V30 15026 H 1416.91 -0.461439 0.596314 0
M  V30 15027 H 1419.56 -0.497533 1.76626 0
M  V30 15028 H 1417.94 -2.98959 2.59692 0
M  V30 15029 H 1419.12 -0.877374 4.5237 0
M  V30 15030 H 1417.43 -0.947563 4.05475 0
M  V30 15031 H 1420.03 -3.72059 3.84026 0
M  V30 15032 H 1420.37 -3.57444 2.134 0
M  V30 15033 H 1420.91 -2.29375 3.25011 0
M  V30 15034 H 1417.64 -2.02194 6.23536 0
M  V30 15035 H 1417.16 -3.24969 5.04138 0
M  V30 15036 H 1418.84 -3.18429 5.63216 0
M  V30 15037 N 1418.98 -1.3968 -0.729882 0
M  V30 15038 C 1419.92 -1.38808 -1.84393 0
M  V30 15039 C 1420.89 -0.247035 -1.64253 0
M  V30 15040 O 1422.08 -0.44293 -1.85588 0
M  V30 15041 C 1419.22 -1.2424 -3.2196 0
M  V30 15042 C 1418.33 -2.47932 -3.53771 0
M  V30 15043 C 1417.47 -2.25913 -4.80767 0
M  V30 15044 C 1416.51 -3.45254 -5.05436 0
M  V30 15045 N 1415.64 -3.2252 -6.23638 0
M  V30 15046 H 1420.48 -2.34038 -1.84473 0
M  V30 15047 H 1418.02 -1.16252 -0.901332 0
M  V30 15048 H 1419.98 -1.13804 -4.01378 0
M  V30 15049 H 1418.61 -0.326375 -3.21146 0
M  V30 15050 H 1417.66 -2.68952 -2.69015 0
M  V30 15051 H 1418.97 -3.36806 -3.67917 0
M  V30 15052 H 1418.13 -2.12748 -5.68175 0
M  V30 15053 H 1416.86 -1.34441 -4.68804 0
M  V30 15054 H 1415.87 -3.58912 -4.16488 0
M  V30 15055 H 1417.09 -4.37634 -5.19282 0
M  V30 15056 H 1415.04 -2.33718 -6.12953 0
M  V30 15057 H 1414.96 -4.04954 -6.38395 0
M  V30 15058 H 1416.23 -3.1306 -7.13872 0
M  V30 15059 N 1420.45 0.960609 -1.2494 0
M  V30 15060 C 1421.68 1.73676 -1.11894 0
M  V30 15061 C 1422.09 1.86288 0.330648 0
M  V30 15062 O 1421.44 1.35575 1.23957 0
M  V30 15063 C 1421.5 3.17142 -1.69297 0
M  V30 15064 C 1421.16 3.27978 -3.18244 0
M  V30 15065 C 1422.16 3.12754 -4.15308 0
M  V30 15066 C 1419.84 3.51991 -3.5834 0
M  V30 15067 C 1421.84 3.21379 -5.50449 0
M  V30 15068 C 1419.52 3.60253 -4.9362 0
M  V30 15069 C 1420.52 3.44961 -5.89484 0
M  V30 15070 O 1420.21 3.52893 -7.22303 0
M  V30 15071 H 1419.94 0.551226 -0.391313 0
M  V30 15072 H 1422.5 1.21418 -1.65671 0
M  V30 15073 H 1420.73 3.70736 -1.09961 0
M  V30 15074 H 1422.42 3.76592 -1.51437 0
M  V30 15075 H 1423.18 2.94079 -3.85672 0
M  V30 15076 H 1419.06 3.62957 -2.84224 0
M  V30 15077 H 1422.6 3.0936 -6.25254 0
M  V30 15078 H 1418.5 3.78444 -5.22925 0
M  V30 15079 H 1419.27 3.69563 -7.30319 0
M  V30 15080 N 1421.93 1.0643 1.16234 0
M  V30 15081 C 1422.88 0.676311 2.20669 0
M  V30 15082 C 1423.85 -0.327721 1.62835 0
M  V30 15083 O 1425.03 -0.216296 1.8957 0
M  V30 15084 C 1422.17 0.0703726 3.45028 0
M  V30 15085 C 1421.29 1.12475 4.17101 0
M  V30 15086 C 1420.42 0.484806 5.28983 0
M  V30 15087 C 1419.46 1.52262 5.9286 0
M  V30 15088 N 1418.6 0.905938 6.96231 0
M  V30 15089 H 1423.44 1.57129 2.53209 0
M  V30 15090 H 1420.98 0.7856 1.24365 0
M  V30 15091 H 1422.93 -0.298488 4.16131 0
M  V30 15092 H 1421.56 -0.788002 3.13034 0
M  V30 15093 H 1420.62 1.6113 3.44589 0
M  V30 15094 H 1421.93 1.91202 4.60698 0
M  V30 15095 H 1421.08 0.0630553 6.06667 0
M  V30 15096 H 1419.82 -0.334332 4.86553 0
M  V30 15097 H 1418.83 1.95425 5.13896 0
M  V30 15098 H 1420.05 2.34388 6.37369 0
M  V30 15099 H 1418 0.107536 6.55912 0
M  V30 15100 H 1417.91 1.63058 7.38206 0
M  V30 15101 H 1419.18 0.509378 7.77834 0
M  V30 15102 N 1423.41 -1.329 0.847073 0
M  V30 15103 C 1424.66 -1.9712 0.445872 0
M  V30 15104 C 1424.98 -1.67398 -1.00014 0
M  V30 15105 O 1424.25 -0.977204 -1.69787 0
M  V30 15106 H 1422.83 -0.729247 0.161887 0
M  V30 15107 H 1425.49 -1.62118 1.08184 0
M  V30 15108 H 1424.59 -3.06575 0.584676 0
M  V30 15109 N 1424.89 -0.604284 -1.45555 0
M  V30 15110 C 1426.13 -0.101149 -2.0415 0
M  V30 15111 C 1426.49 1.24348 -1.46292 0
M  V30 15112 O 1427.69 1.83714 -1.9622 0
M  V30 15113 C 1425.96 -0.0589898 -3.57351 0
M  V30 15114 S 1427.52 0.383434 -4.37122 0
M  V30 15115 H 1424.34 -0.0479603 -0.709381 0
M  V30 15116 H 1426.94 -0.801643 -1.78309 0
M  V30 15117 H 1425.65 -1.04119 -3.96973 0
M  V30 15118 H 1425.18 0.663601 -3.87763 0
M  V30 15119 H 1427.19 1.63367 -4.68536 0
M  V30 15120 N 1426.37 1.53816 -0.343257 0
M  V30 15121 C 1427.61 2.0282 0.253695 0
M  V30 15122 C 1427.97 1.22564 1.47791 0
M  V30 15123 O 1429.17 1.61464 2.14902 0
M  V30 15124 C 1427.44 3.5298 0.560361 0
M  V30 15125 S 1429 4.23889 1.13416 0
M  V30 15126 H 1425.82 0.706976 0.0755344 0
M  V30 15127 H 1428.42 1.89492 -0.480951 0
M  V30 15128 H 1427.13 4.09002 -0.338451 0
M  V30 15129 H 1426.66 3.70426 1.32468 0
M  V30 15130 H 1428.67 4.33192 2.4199 0
M  V30 15131 N 1427.84 0.0718701 1.57436 0
M  V30 15132 C 1428.75 -0.910077 2.16229 0
M  V30 15133 C 1429.77 -1.32699 1.12548 0
M  V30 15134 O 1430.95 -1.39967 1.44814 0
M  V30 15135 C 1428.01 -2.15942 2.71238 0
M  V30 15136 C 1427.07 -1.79891 3.89792 0
M  V30 15137 C 1426.31 -2.9887 4.42168 0
M  V30 15138 O 1426.53 -4.1289 3.93545 0
M  V30 15139 O 1425.46 -2.78682 5.33498 0
M  V30 15140 H 1429.29 -0.439969 3.00496 0
M  V30 15141 H 1426.87 -0.151204 1.48633 0
M  V30 15142 H 1428.76 -2.89204 3.06494 0
M  V30 15143 H 1427.43 -2.62051 1.90029 0
M  V30 15144 H 1426.34 -1.03881 3.59388 0
M  V30 15145 H 1427.67 -1.38566 4.72293 0
M  V30 15146 N 1429.32 -1.56304 -0.201686 0
M  V30 15147 C 1430.6 -1.71059 -0.948595 0
M  V30 15148 C 1430.98 -0.624794 -2.01642 0
M  V30 15149 O 1430.33 0.365235 -2.25562 0
M  V30 15150 C 1430.54 -3.13136 -1.54101 0
M  V30 15151 C 1431.89 -3.73165 -2.02567 0
M  V30 15152 O 1432.91 -3.16223 -1.63956 0
M  V30 15153 O 1431.77 -4.73084 -2.73594 0
M  V30 15154 H 1428.86 -0.697443 -0.444412 0
M  V30 15155 H 1431.41 -1.68611 -0.191901 0
M  V30 15156 H 1430.18 -3.8363 -0.770968 0
M  V30 15157 H 1429.8 -3.19784 -2.36271 0
M  V30 15158 N 1430.8 0.469154 -1.50455 0
M  V30 15159 C 1431.73 1.58443 -1.65615 0
M  V30 15160 C 1432.75 1.53668 -0.537584 0
M  V30 15161 O 1433.93 1.59021 -0.810832 0
M  V30 15162 C 1431.03 2.97327 -1.62634 0
M  V30 15163 C 1430.21 3.2695 -2.90555 0
M  V30 15164 C 1429.27 4.45398 -2.80191 0
M  V30 15165 O 1428.29 4.45611 -3.54146 0
M  V30 15166 N 1429.49 5.47167 -1.93878 0
M  V30 15167 H 1432.26 1.45854 -2.61814 0
M  V30 15168 H 1429.82 0.657604 -1.47943 0
M  V30 15169 H 1431.81 3.74537 -1.53311 0
M  V30 15170 H 1430.38 3.03675 -0.741624 0
M  V30 15171 H 1429.6 2.38335 -3.13991 0
M  V30 15172 H 1430.89 3.43554 -3.75297 0
M  V30 15173 H 1430.29 5.49817 -1.33109 0
M  V30 15174 H 1428.85 6.23353 -1.90457 0
M  V30 15175 N 1432.28 1.40065 0.722464 0
M  V30 15176 C 1433.53 1.37698 1.47932 0
M  V30 15177 C 1433.85 -0.0222608 1.94987 0
M  V30 15178 O 1433.12 -0.975795 1.69868 0
M  V30 15179 H 1431.7 0.506766 0.548815 0
M  V30 15180 H 1434.36 1.75053 0.856884 0
M  V30 15181 H 1433.46 2.04756 2.35545 0
M  V30 15182 N 1433.76 -0.95397 1.25448 0
M  V30 15183 C 1434.67 -2.08452 1.07634 0
M  V30 15184 C 1435.68 -1.73995 0.013294 0
M  V30 15185 O 1436.86 -2.00256 0.214367 0
M  V30 15186 C 1433.92 -3.39606 0.697756 0
M  V30 15187 C 1432.99 -3.87926 1.83881 0
M  V30 15188 C 1432.22 -5.12821 1.47819 0
M  V30 15189 O 1432.44 -5.69172 0.374143 0
M  V30 15190 O 1431.38 -5.55866 2.3086 0
M  V30 15191 H 1435.2 -2.26382 2.02447 0
M  V30 15192 H 1432.79 -1.06877 1.04392 0
M  V30 15193 H 1434.67 -4.18438 0.498778 0
M  V30 15194 H 1433.34 -3.22944 -0.221108 0
M  V30 15195 H 1432.25 -3.10095 2.09265 0
M  V30 15196 H 1433.58 -4.09087 2.73694 0
M  V30 15197 N 1435.24 -1.07045 -1.15668 0
M  V30 15198 C 1436.18 -0.688004 -2.20307 0
M  V30 15199 C 1437.15 0.319081 -1.63006 0
M  V30 15200 O 1438.34 0.206239 -1.89682 0
M  V30 15201 C 1435.48 -0.0886692 -3.44986 0
M  V30 15202 C 1434.59 -1.14685 -4.16499 0
M  V30 15203 C 1433.73 -0.512852 -5.28719 0
M  V30 15204 C 1432.76 -1.55404 -5.92044 0
M  V30 15205 N 1431.9 -0.942848 -6.9574 0
M  V30 15206 H 1436.74 -1.58469 -2.52372 0
M  V30 15207 H 1434.28 -0.792184 -1.23947 0
M  V30 15208 H 1436.24 0.276415 -4.16283 0
M  V30 15209 H 1434.87 0.77139 -3.13448 0
M  V30 15210 H 1433.92 -1.62955 -3.43729 0
M  V30 15211 H 1435.23 -1.93643 -4.59678 0
M  V30 15212 H 1434.38 -0.0952274 -6.06625 0
M  V30 15213 H 1433.12 0.308524 -4.86723 0
M  V30 15214 H 1432.13 -1.98148 -5.12852 0
M  V30 15215 H 1433.35 -2.37765 -6.36117 0
M  V30 15216 H 1431.3 -0.142319 -6.55846 0
M  V30 15217 H 1431.22 -1.6697 -7.37331 0
M  V30 15218 H 1432.48 -0.550621 -7.77553 0
M  V30 15219 N 1436.71 1.32449 -0.85411 0
M  V30 15220 C 1437.94 2.01997 -0.470307 0
M  V30 15221 C 1438.36 1.63772 0.925225 0
M  V30 15222 O 1437.72 0.838089 1.60766 0
M  V30 15223 C 1437.77 3.55294 -0.616301 0
M  V30 15224 O 1436.87 4.10902 0.351133 0
M  V30 15225 H 1436.21 0.63651 -0.189079 0
M  V30 15226 H 1438.74 1.69008 -1.15315 0
M  V30 15227 H 1438.75 4.0488 -0.503624 0
M  V30 15228 H 1437.43 3.82459 -1.63396 0
M  V30 15229 H 1436.01 3.72391 0.194741 0
M  V30 15230 N 1438.19 0.611994 1.45232 0
M  V30 15231 C 1439.12 -0.0914869 2.33321 0
M  V30 15232 C 1440.1 -0.854315 1.4709 0
M  V30 15233 O 1441.29 -0.823994 1.75852 0
M  V30 15234 C 1438.42 -1.08652 3.29867 0
M  V30 15235 C 1437.37 -0.436615 4.25767 0
M  V30 15236 C 1436.7 -1.54021 5.12037 0
M  V30 15237 C 1438 0.645005 5.18302 0
M  V30 15238 H 1439.69 0.644053 2.92391 0
M  V30 15239 H 1437.24 0.311171 1.40598 0
M  V30 15240 H 1439.19 -1.58726 3.90364 0
M  V30 15241 H 1437.91 -1.85271 2.68965 0
M  V30 15242 H 1436.57 0.0432918 3.66574 0
M  V30 15243 H 1436.22 -2.29679 4.475 0
M  V30 15244 H 1435.92 -1.11084 5.77005 0
M  V30 15245 H 1437.45 -2.04313 5.75403 0
M  V30 15246 H 1438.86 0.228166 5.72846 0
M  V30 15247 H 1437.26 0.996387 5.9177 0
M  V30 15248 H 1438.33 1.51985 4.60466 0
M  V30 15249 N 1439.67 -1.53632 0.351409 0
M  V30 15250 C 1440.6 -2.2284 -0.536204 0
M  V30 15251 C 1441.61 -1.23765 -1.05764 0
M  V30 15252 O 1442.8 -1.50073 -0.966449 0
M  V30 15253 C 1439.9 -2.9013 -1.75151 0
M  V30 15254 C 1439.08 -4.15588 -1.36401 0
M  V30 15255 C 1438.14 -4.66217 -2.43984 0
M  V30 15256 O 1437.16 -5.3024 -2.06964 0
M  V30 15257 N 1438.36 -4.42817 -3.75358 0
M  V30 15258 H 1441.13 -2.99647 0.0565368 0
M  V30 15259 H 1438.69 -1.60942 0.175905 0
M  V30 15260 H 1440.68 -3.20913 -2.4657 0
M  V30 15261 H 1439.25 -2.16862 -2.25144 0
M  V30 15262 H 1438.47 -3.91264 -0.480258 0
M  V30 15263 H 1439.76 -4.97179 -1.08121 0
M  V30 15264 H 1439.16 -3.9163 -4.08218 0
M  V30 15265 H 1437.71 -4.78186 -4.42924 0
M  V30 15266 N 1441.15 -0.0802183 -1.57396 0
M  V30 15267 C 1442.08 0.881426 -2.16225 0
M  V30 15268 C 1443.06 1.30459 -1.09154 0
M  V30 15269 O 1444.24 1.37413 -1.37227 0
M  V30 15270 C 1441.37 2.14599 -2.73065 0
M  V30 15271 C 1440.33 1.86195 -3.85377 0
M  V30 15272 C 1439.65 3.19354 -4.28856 0
M  V30 15273 C 1440.95 1.16059 -5.09242 0
M  V30 15274 H 1442.65 0.391325 -2.96832 0
M  V30 15275 H 1440.19 0.186785 -1.42783 0
M  V30 15276 H 1442.15 2.82297 -3.12868 0
M  V30 15277 H 1440.87 2.65866 -1.89691 0
M  V30 15278 H 1439.53 1.209 -3.46091 0
M  V30 15279 H 1439.18 3.68479 -3.42392 0
M  V30 15280 H 1438.88 3.01137 -5.04569 0
M  V30 15281 H 1440.4 3.88235 -4.71281 0
M  V30 15282 H 1441.82 1.7384 -5.46308 0
M  V30 15283 H 1440.21 1.08072 -5.90288 0
M  V30 15284 H 1441.28 0.14098 -4.84695 0
M  V30 15285 N 1442.63 1.56409 0.193394 0
M  V30 15286 C 1443.87 1.80991 0.914875 0
M  V30 15287 C 1444.2 0.654538 1.82837 0
M  V30 15288 O 1443.48 -0.344816 1.91419 0
M  V30 15289 C 1443.76 3.15841 1.72964 0
M  V30 15290 C 1443.62 4.41873 0.840748 0
M  V30 15291 C 1444.93 3.474 2.70188 0
M  V30 15292 H 1442.05 0.658408 0.331161 0
M  V30 15293 H 1444.7 1.89125 0.182161 0
M  V30 15294 H 1442.85 3.09038 2.35431 0
M  V30 15295 H 1444.52 4.60723 0.230654 0
M  V30 15296 H 1442.76 4.33549 0.147558 0
M  V30 15297 H 1443.43 5.32728 1.44586 0
M  V30 15298 H 1445.91 3.54513 2.17852 0
M  V30 15299 H 1444.78 4.42872 3.24278 0
M  V30 15300 H 1445.04 2.7098 3.49317 0
M  V30 15301 N 1444.1 -0.461169 1.50702 0
M  V30 15302 C 1445.04 -1.57702 1.64941 0
M  V30 15303 C 1446.01 -1.54808 0.497312 0
M  V30 15304 O 1447.2 -1.74286 0.718104 0
M  V30 15305 C 1444.33 -2.96285 1.64112 0
M  V30 15306 C 1443.37 -3.17296 2.85001 0
M  V30 15307 S 1444.2 -2.96134 4.46167 0
M  V30 15308 C 1445.36 -4.37042 4.48046 0
M  V30 15309 H 1445.59 -1.45386 2.59327 0
M  V30 15310 H 1443.13 -0.649209 1.40088 0
M  V30 15311 H 1445.08 -3.76178 1.64318 0
M  V30 15312 H 1443.75 -3.05983 0.709442 0
M  V30 15313 H 1442.94 -4.18561 2.80754 0
M  V30 15314 H 1442.54 -2.45191 2.82413 0
M  V30 15315 H 1444.83 -5.29846 4.2222 0
M  V30 15316 H 1445.78 -4.4633 5.49723 0
M  V30 15317 H 1446.18 -4.19584 3.77637 0
M  V30 15318 N 1445.58 -1.40446 -0.715026 0
M  V30 15319 C 1446.49 -1.43074 -1.85922 0
M  V30 15320 C 1447.51 -0.323294 -1.7097 0
M  V30 15321 O 1448.68 -0.567966 -1.93226 0
M  V30 15322 C 1445.75 -1.29206 -3.21725 0
M  V30 15323 C 1444.81 -2.50097 -3.48927 0
M  V30 15324 C 1444.04 -2.36881 -4.7825 0
M  V30 15325 O 1444.27 -1.38292 -5.53382 0
M  V30 15326 O 1443.2 -3.26266 -5.058 0
M  V30 15327 H 1447.03 -2.39565 -1.86661 0
M  V30 15328 H 1444.61 -1.21775 -0.865522 0
M  V30 15329 H 1446.49 -1.23681 -4.02841 0
M  V30 15330 H 1445.17 -0.358207 -3.21712 0
M  V30 15331 H 1444.07 -2.61199 -2.67817 0
M  V30 15332 H 1445.41 -3.42244 -3.53737 0
M  V30 15333 N 1447.06 0.947303 -1.25952 0
M  V30 15334 C 1448.29 1.72479 -1.1373 0
M  V30 15335 C 1448.7 1.86629 0.310871 0
M  V30 15336 O 1448.04 1.36882 1.22512 0
M  V30 15337 C 1448.1 3.15328 -1.72651 0
M  V30 15338 C 1447.77 3.24584 -3.21705 0
M  V30 15339 C 1448.76 3.08331 -4.18602 0
M  V30 15340 C 1446.45 3.4817 -3.62054 0
M  V30 15341 C 1448.44 3.15523 -5.53827 0
M  V30 15342 C 1446.13 3.54997 -4.97413 0
M  V30 15343 C 1447.13 3.38689 -5.93109 0
M  V30 15344 O 1446.82 3.45212 -7.26005 0
M  V30 15345 H 1446.55 0.547044 -0.397138 0
M  V30 15346 H 1449.1 1.19654 -1.66949 0
M  V30 15347 H 1447.33 3.69549 -1.13887 0
M  V30 15348 H 1449.02 3.74965 -1.55423 0
M  V30 15349 H 1449.79 2.89971 -3.88769 0
M  V30 15350 H 1445.67 3.59922 -2.88057 0
M  V30 15351 H 1449.21 3.02711 -6.285 0
M  V30 15352 H 1445.11 3.72876 -5.26909 0
M  V30 15353 H 1445.87 3.61796 -7.34198 0
M  V30 15354 N 1448.54 1.07657 1.15099 0
M  V30 15355 C 1449.78 0.802796 1.86234 0
M  V30 15356 C 1450.12 -0.669555 1.82293 0
M  V30 15357 O 1449.39 -1.49162 1.24823 0
M  V30 15358 C 1449.68 1.3156 3.35208 0
M  V30 15359 C 1449.53 2.85272 3.47764 0
M  V30 15360 C 1450.85 0.934641 4.30061 0
M  V30 15361 H 1447.97 0.293099 0.676212 0
M  V30 15362 H 1450.61 1.33488 1.35207 0
M  V30 15363 H 1448.76 0.86298 3.78794 0
M  V30 15364 H 1450.43 3.38847 3.13018 0
M  V30 15365 H 1448.67 3.23316 2.89222 0
M  V30 15366 H 1449.34 3.16223 4.52446 0
M  V30 15367 H 1451.82 1.3247 3.9445 0
M  V30 15368 H 1450.7 1.32074 5.32774 0
M  V30 15369 H 1450.96 -0.159122 4.41814 0
M  V30 15370 N 1450.02 -1.31994 0.861122 0
M  V30 15371 C 1451.43 -1.79271 0.521437 0
M  V30 15372 C 1451.78 -1.71046 -0.96113 0
M  V30 15373 O 1450.9 -1.2729 -1.75003 0
M  V30 15374 C 1451.5 -3.25507 0.939731 0
M  V30 15375 C 1450.06 -3.70713 0.651845 0
M  V30 15376 C 1449.2 -2.52967 1.13592 0
M  V30 15377 H 1452.16 -1.19201 1.0477 0
M  V30 15378 H 1452.18 -3.79619 0.258754 0
M  V30 15379 H 1451.69 -3.3146 2.0188 0
M  V30 15380 H 1449.79 -3.70268 -0.416232 0
M  V30 15381 H 1449.9 -4.63236 1.22267 0
M  V30 15382 H 1448.27 -2.48558 0.555971 0
M  V30 15383 H 1449.05 -2.61671 2.22223 0
M  V30 15384 N 1451.49 -0.619688 -1.44906 0
M  V30 15385 C 1452.42 0.0791121 -2.33366 0
M  V30 15386 C 1453.41 0.846503 -1.47541 0
M  V30 15387 O 1454.59 0.814657 -1.76287 0
M  V30 15388 C 1451.72 1.06901 -3.30438 0
M  V30 15389 C 1450.67 0.41403 -4.25993 0
M  V30 15390 C 1450 1.51303 -5.12846 0
M  V30 15391 C 1451.3 -0.672483 -5.17953 0
M  V30 15392 H 1452.99 -0.659551 -2.92045 0
M  V30 15393 H 1450.54 -0.318623 -1.40431 0
M  V30 15394 H 1452.49 1.56653 -3.912 0
M  V30 15395 H 1451.22 1.83842 -2.69944 0
M  V30 15396 H 1449.88 -0.0627315 -3.66546 0
M  V30 15397 H 1449.52 2.27303 -4.48712 0
M  V30 15398 H 1449.22 1.08022 -5.77586 0
M  V30 15399 H 1450.75 2.01258 -5.76479 0
M  V30 15400 H 1452.16 -0.258542 -5.72717 0
M  V30 15401 H 1450.56 -1.02776 -5.91234 0
M  V30 15402 H 1451.63 -1.54425 -4.59653 0
M  V30 15403 N 1452.97 1.53444 -0.359552 0
M  V30 15404 C 1454.22 2.00769 0.231564 0
M  V30 15405 C 1454.54 1.2487 1.49775 0
M  V30 15406 O 1453.81 0.360284 1.92558 0
M  V30 15407 H 1452.39 0.741732 0.0885581 0
M  V30 15408 H 1455.05 1.88785 -0.484397 0
M  V30 15409 H 1454.15 3.0865 0.462789 0
M  V30 15410 N 1454.45 0.0885642 1.57351 0
M  V30 15411 C 1455.68 -0.588641 1.98871 0
M  V30 15412 C 1456.1 -1.61333 0.967125 0
M  V30 15413 O 1455.46 -1.81183 -0.0652149 0
M  V30 15414 C 1455.51 -1.21877 3.39379 0
M  V30 15415 O 1454.61 -2.33462 3.39955 0
M  V30 15416 H 1453.95 -0.149938 0.64685 0
M  V30 15417 H 1456.48 0.168043 2.03909 0
M  V30 15418 H 1456.49 -1.56163 3.76931 0
M  V30 15419 H 1455.17 -0.468037 4.13258 0
M  V30 15420 H 1453.74 -2.00844 3.14191 0
M  V30 15421 N 1455.93 -1.56509 -0.185096 0
M  V30 15422 C 1456.86 -1.98363 -1.23184 0
M  V30 15423 C 1457.84 -0.85709 -1.46929 0
M  V30 15424 O 1459.02 -1.12216 -1.58497 0
M  V30 15425 C 1456.15 -2.33172 -2.57387 0
M  V30 15426 C 1455.11 -3.48658 -2.48236 0
M  V30 15427 C 1454.43 -3.69171 -3.86804 0
M  V30 15428 C 1455.73 -4.82538 -1.99885 0
M  V30 15429 H 1457.43 -2.86053 -0.883982 0
M  V30 15430 H 1454.97 -1.37623 -0.423786 0
M  V30 15431 H 1456.93 -2.61048 -3.30805 0
M  V30 15432 H 1455.65 -1.42377 -2.93933 0
M  V30 15433 H 1454.31 -3.20889 -1.77273 0
M  V30 15434 H 1453.96 -2.75689 -4.20719 0
M  V30 15435 H 1453.66 -4.46868 -3.81553 0
M  V30 15436 H 1455.18 -3.99433 -4.61829 0
M  V30 15437 H 1456.6 -5.0938 -2.63068 0
M  V30 15438 H 1454.99 -5.63775 -2.05614 0
M  V30 15439 H 1456.06 -4.75453 -0.952503 0
M  V30 15440 N 1457.41 0.45317 -1.50944 0
M  V30 15441 C 1458.82 0.788393 -1.38768 0
M  V30 15442 C 1459.02 1.96233 -0.457676 0
M  V30 15443 O 1458.08 2.52328 0.0930651 0
M  V30 15444 C 1459.39 1.08363 -2.80496 0
M  V30 15445 C 1460.94 1.18901 -2.89537 0
M  V30 15446 C 1461.41 1.51727 -4.32138 0
M  V30 15447 N 1462.91 1.58683 -4.35171 0
M  V30 15448 C 1463.64 1.85623 -5.42523 0
M  V30 15449 N 1463.14 2.10462 -6.60059 0
M  V30 15450 N 1464.93 1.87274 -5.29986 0
M  V30 15451 H 1457.08 -0.320216 -2.09972 0
M  V30 15452 H 1459.34 -0.0808021 -0.94455 0
M  V30 15453 H 1459.05 0.293897 -3.5047 0
M  V30 15454 H 1458.92 2.01532 -3.18849 0
M  V30 15455 H 1461.31 1.96939 -2.19771 0
M  V30 15456 H 1461.39 0.236691 -2.54703 0
M  V30 15457 H 1461.04 0.74223 -5.02447 0
M  V30 15458 H 1460.97 2.48139 -4.64472 0
M  V30 15459 H 1463.46 1.41455 -3.50427 0
M  V30 15460 H 1463.77 2.30343 -7.37673 0
M  V30 15461 H 1462.11 2.07817 -6.63202 0
M  V30 15462 H 1465.31 1.67377 -4.37153 0
M  V30 15463 H 1465.48 2.07933 -6.13733 0
M  V30 15464 N 1458.88 1.40823 0.707568 0
M  V30 15465 C 1460.16 1.3003 1.46122 0
M  V30 15466 C 1460.54 -0.0776873 2.10957 0
M  V30 15467 O 1459.89 -1.09109 2.00767 0
M  V30 15468 C 1460.1 2.44498 2.49042 0
M  V30 15469 C 1461.45 2.85106 3.14642 0
M  V30 15470 O 1462.47 2.44149 2.59364 0
M  V30 15471 O 1461.33 3.55892 4.14733 0
M  V30 15472 H 1458.42 0.511082 0.650172 0
M  V30 15473 H 1460.97 1.52761 0.739062 0
M  V30 15474 H 1459.74 3.36502 1.99705 0
M  V30 15475 H 1459.37 2.23579 3.28783 0
M  V30 15476 N 1460.36 -0.94061 1.26453 0
M  V30 15477 C 1461.59 -1.71874 1.14643 0
M  V30 15478 C 1462 -1.86791 -0.300969 0
M  V30 15479 O 1461.34 -1.37529 -1.21784 0
M  V30 15480 C 1461.41 -3.14408 1.74321 0
M  V30 15481 C 1461.07 -3.22873 3.23422 0
M  V30 15482 C 1462.07 -3.06107 4.20231 0
M  V30 15483 C 1459.75 -3.46245 3.63895 0
M  V30 15484 C 1461.75 -3.12581 5.55492 0
M  V30 15485 C 1459.43 -3.52354 4.99289 0
M  V30 15486 C 1460.43 -3.35539 5.94897 0
M  V30 15487 O 1460.12 -3.41357 7.27826 0
M  V30 15488 H 1459.85 -0.544931 0.400033 0
M  V30 15489 H 1462.4 -1.18767 1.67581 0
M  V30 15490 H 1460.63 -3.6894 1.15846 0
M  V30 15491 H 1462.32 -3.74135 1.57409 0
M  V30 15492 H 1463.09 -2.87906 3.90302 0
M  V30 15493 H 1458.97 -3.58389 2.89962 0
M  V30 15494 H 1462.51 -2.99374 6.30096 0
M  V30 15495 H 1458.41 -3.70077 5.2888 0
M  V30 15496 H 1459.18 -3.57897 7.36106 0
M  V30 15497 N 1461.84 -1.08266 -1.14527 0
M  V30 15498 C 1462.77 -0.732968 -2.21698 0
M  V30 15499 C 1463.75 0.283917 -1.67714 0
M  V30 15500 O 1464.94 0.154607 -1.93584 0
M  V30 15501 C 1462.07 -0.139935 -3.47018 0
M  V30 15502 C 1461.02 -1.08501 -4.14019 0
M  V30 15503 C 1460.35 -0.354263 -5.33525 0
M  V30 15504 C 1461.65 -2.42254 -4.62721 0
M  V30 15505 H 1463.34 -1.629 -2.51205 0
M  V30 15506 H 1460.89 -0.784696 -1.20742 0
M  V30 15507 H 1462.84 0.1167 -4.21238 0
M  V30 15508 H 1461.56 0.791228 -3.16871 0
M  V30 15509 H 1460.22 -1.32672 -3.41751 0
M  V30 15510 H 1459.87 0.580658 -4.99637 0
M  V30 15511 H 1459.57 -0.984287 -5.79297 0
M  V30 15512 H 1461.09 -0.105648 -6.10509 0
M  V30 15513 H 1462.51 -2.22357 -5.28422 0
M  V30 15514 H 1460.91 -3.00935 -5.1919 0
M  V30 15515 H 1461.98 -3.03884 -3.77866 0
M  V30 15516 N 1463.32 1.31536 -0.86811 0
M  V30 15517 C 1464.73 1.78991 -0.530937 0
M  V30 15518 C 1465.08 1.71553 0.952046 0
M  V30 15519 O 1464.21 1.28216 1.74326 0
M  V30 15520 C 1464.8 3.25004 -0.956981 0
M  V30 15521 C 1463.36 3.70362 -0.671495 0
M  V30 15522 C 1462.51 2.52361 -1.14932 0
M  V30 15523 H 1465.46 1.18644 -1.05401 0
M  V30 15524 H 1465.48 3.79477 -0.278883 0
M  V30 15525 H 1464.99 3.30385 -2.03635 0
M  V30 15526 H 1463.09 3.70483 0.39659 0
M  V30 15527 H 1463.21 4.62581 -1.24722 0
M  V30 15528 H 1461.57 2.4826 -0.569144 0
M  V30 15529 H 1462.35 2.60489 -2.23608 0
M  V30 15530 N 1464.8 0.627364 1.44575 0
M  V30 15531 C 1466.21 0.292662 1.56894 0
M  V30 15532 C 1466.41 -1.20429 1.61552 0
M  V30 15533 O 1465.47 -1.98819 1.55651 0
M  V30 15534 C 1466.78 0.981267 2.84239 0
M  V30 15535 C 1468.33 0.959053 2.97945 0
M  V30 15536 C 1468.81 1.62805 4.28087 0
M  V30 15537 N 1470.3 1.59446 4.34892 0
M  V30 15538 C 1471.03 2.08107 5.34302 0
M  V30 15539 N 1470.53 2.64942 6.40139 0
M  V30 15540 N 1472.32 1.98758 5.25787 0
M  V30 15541 H 1464.47 1.5991 1.39795 0
M  V30 15542 H 1466.73 0.671019 0.669655 0
M  V30 15543 H 1466.44 2.0361 2.86768 0
M  V30 15544 H 1466.31 0.516703 3.73644 0
M  V30 15545 H 1468.7 -0.0872902 2.94971 0
M  V30 15546 H 1468.78 1.46207 2.09898 0
M  V30 15547 H 1468.43 2.67382 4.31821 0
M  V30 15548 H 1468.36 1.09989 5.14985 0
M  V30 15549 H 1470.85 1.17947 3.59022 0
M  V30 15550 H 1471.16 2.99814 7.12272 0
M  V30 15551 H 1469.51 2.68991 6.40835 0
M  V30 15552 H 1472.7 1.54081 4.42014 0
M  V30 15553 H 1472.87 2.36992 6.03107 0
M  V30 15554 N 1466.28 -1.53251 0.367684 0
M  V30 15555 C 1467.23 -2.22578 -0.494287 0
M  V30 15556 C 1468.21 -1.22175 -1.047 0
M  V30 15557 O 1469.4 -1.47613 -0.976696 0
M  V30 15558 C 1466.53 -3.02007 -1.63238 0
M  V30 15559 C 1465.62 -4.09788 -1.09244 0
M  V30 15560 N 1466.01 -5.05048 -0.275665 0
M  V30 15561 C 1464.31 -4.24532 -1.36705 0
M  V30 15562 C 1465.01 -5.81696 0.0201973 0
M  V30 15563 N 1463.98 -5.40518 -0.577991 0
M  V30 15564 H 1467.78 -2.93583 0.136532 0
M  V30 15565 H 1465.3 -1.61446 0.175813 0
M  V30 15566 H 1467.3 -3.50193 -2.26209 0
M  V30 15567 H 1465.96 -2.32533 -2.26624 0
M  V30 15568 H 1466.97 -5.1783 0.0853053 0
M  V30 15569 H 1463.64 -3.66285 -2.00354 0
M  V30 15570 H 1465.03 -6.68444 0.680622 0
M  V30 15571 N 1467.75 -0.0969077 -1.57302 0
M  V30 15572 C 1468.98 0.578086 -1.99181 0
M  V30 15573 C 1469.4 1.60818 -0.975667 0
M  V30 15574 O 1468.76 1.81215 0.0556054 0
M  V30 15575 C 1468.81 1.20076 -3.40021 0
M  V30 15576 O 1467.91 2.31656 -3.41188 0
M  V30 15577 H 1467.25 0.146506 -0.647636 0
M  V30 15578 H 1469.78 -0.178855 -2.03817 0
M  V30 15579 H 1469.79 1.54162 -3.77754 0
M  V30 15580 H 1468.47 0.446114 -4.135 0
M  V30 15581 H 1467.05 1.99175 -3.15252 0
M  V30 15582 N 1469.23 1.56605 0.176793 0
M  V30 15583 C 1470.48 1.80875 0.892578 0
M  V30 15584 C 1470.79 0.673245 1.83648 0
M  V30 15585 O 1472 0.800732 2.59423 0
M  V30 15586 C 1470.46 3.20481 1.63768 0
M  V30 15587 C 1470.06 4.41885 0.737685 0
M  V30 15588 C 1471.81 3.54048 2.34202 0
M  V30 15589 C 1469.71 5.72512 1.48271 0
M  V30 15590 H 1468.64 0.674476 0.337042 0
M  V30 15591 H 1471.3 1.82922 0.145574 0
M  V30 15592 H 1469.68 3.12736 2.42924 0
M  V30 15593 H 1470.85 4.60797 -0.0165186 0
M  V30 15594 H 1469.17 4.16153 0.143277 0
M  V30 15595 H 1471.76 4.48886 2.90526 0
M  V30 15596 H 1472.11 2.78665 3.09276 0
M  V30 15597 H 1472.64 3.63322 1.61995 0
M  V30 15598 H 1469.38 6.5091 0.774399 0
M  V30 15599 H 1468.9 5.57586 2.21038 0
M  V30 15600 H 1470.58 6.14274 2.03165 0
M  V30 15601 N 1470.71 -0.445159 1.51182 0
M  V30 15602 C 1471.96 -1.19288 1.6314 0
M  V30 15603 C 1472.28 -1.91904 0.346109 0
M  V30 15604 O 1471.55 -1.8523 -0.637695 0
M  V30 15605 H 1470.13 -0.443319 0.601229 0
M  V30 15606 H 1472.79 -0.511136 1.88078 0
M  V30 15607 H 1471.89 -1.92672 2.45528 0
M  V30 15608 N 1472.19 -1.41197 -0.700089 0
M  V30 15609 C 1473.12 -1.45456 -1.8266 0
M  V30 15610 C 1474.1 -0.313719 -1.67182 0
M  V30 15611 O 1475.28 -0.524528 -1.86982 0
M  V30 15612 C 1472.41 -1.33161 -3.20758 0
M  V30 15613 C 1471.37 -2.4501 -3.50933 0
M  V30 15614 C 1470.69 -2.17782 -4.88339 0
M  V30 15615 C 1471.99 -3.87352 -3.50365 0
M  V30 15616 H 1473.69 -2.39735 -1.79353 0
M  V30 15617 H 1471.23 -1.1539 -0.861465 0
M  V30 15618 H 1473.19 -1.34754 -3.99274 0
M  V30 15619 H 1471.91 -0.353646 -3.2468 0
M  V30 15620 H 1470.57 -2.42692 -2.74766 0
M  V30 15621 H 1470.22 -1.1834 -4.88881 0
M  V30 15622 H 1469.92 -2.92728 -5.09494 0
M  V30 15623 H 1471.44 -2.21083 -5.6917 0
M  V30 15624 H 1472.86 -3.9141 -4.18893 0
M  V30 15625 H 1471.25 -4.61944 -3.83051 0
M  V30 15626 H 1472.32 -4.15827 -2.4943 0
M  V30 15627 N 1473.67 0.933891 -1.2695 0
M  V30 15628 C 1474.63 2.0152 -1.0919 0
M  V30 15629 C 1475.63 1.60755 -0.037865 0
M  V30 15630 O 1476.82 1.71904 -0.281917 0
M  V30 15631 C 1473.95 3.34403 -0.66239 0
M  V30 15632 H 1475.14 2.18706 -2.05201 0
M  V30 15633 H 1472.7 1.11385 -1.0965 0
M  V30 15634 H 1473.43 3.22915 0.299388 0
M  V30 15635 H 1473.22 3.65345 -1.42356 0
M  V30 15636 H 1474.71 4.13826 -0.560187 0
M  V30 15637 N 1475.14 1.08871 1.13951 0
M  V30 15638 C 1476.08 0.680849 2.18854 0
M  V30 15639 C 1477.09 -0.274456 1.6047 0
M  V30 15640 O 1478.28 -0.0613804 1.78394 0
M  V30 15641 C 1475.38 -0.0182788 3.38895 0
M  V30 15642 C 1474.55 0.957125 4.268 0
M  V30 15643 C 1473.61 0.29245 5.25387 0
M  V30 15644 O 1472.64 0.938329 5.61413 0
M  V30 15645 N 1473.84 -0.955738 5.72578 0
M  V30 15646 H 1476.6 1.58334 2.54461 0
M  V30 15647 H 1474.16 0.975417 1.29218 0
M  V30 15648 H 1476.16 -0.474001 4.01915 0
M  V30 15649 H 1474.73 -0.822932 3.01574 0
M  V30 15650 H 1473.95 1.59156 3.60642 0
M  V30 15651 H 1475.23 1.61792 4.82391 0
M  V30 15652 H 1474.63 -1.50014 5.45447 0
M  V30 15653 H 1473.19 -1.35488 6.37563 0
M  V30 15654 N 1476.62 -1.31073 0.875073 0
M  V30 15655 C 1477.55 -2.30855 0.350468 0
M  V30 15656 C 1478.53 -1.60569 -0.561384 0
M  V30 15657 O 1479.72 -1.88242 -0.477329 0
M  V30 15658 C 1476.85 -3.44444 -0.444493 0
M  V30 15659 C 1475.8 -4.26357 0.374716 0
M  V30 15660 C 1475.13 -5.31903 -0.546243 0
M  V30 15661 C 1476.43 -4.96817 1.61153 0
M  V30 15662 H 1478.12 -2.74983 1.18427 0
M  V30 15663 H 1475.67 -1.32199 0.570909 0
M  V30 15664 H 1477.62 -4.13304 -0.82206 0
M  V30 15665 H 1476.34 -2.99096 -1.31185 0
M  V30 15666 H 1475 -3.59171 0.734295 0
M  V30 15667 H 1474.65 -4.82803 -1.41102 0
M  V30 15668 H 1474.35 -5.876 -0.00198173 0
M  V30 15669 H 1475.88 -6.03621 -0.920542 0
M  V30 15670 H 1477.29 -5.58247 1.30511 0
M  V30 15671 H 1475.69 -5.62334 2.09524 0
M  V30 15672 H 1476.76 -4.2351 2.36151 0
M  V30 15673 N 1478.1 -0.635022 -1.4424 0
M  V30 15674 C 1479.03 0.0543561 -2.33437 0
M  V30 15675 C 1480.01 0.830807 -1.48431 0
M  V30 15676 O 1481.2 0.795913 -1.77141 0
M  V30 15677 C 1478.33 1.03391 -3.31553 0
M  V30 15678 C 1477.28 0.368824 -4.26408 0
M  V30 15679 C 1476.61 1.45855 -5.14422 0
M  V30 15680 C 1477.91 -0.727381 -5.1721 0
M  V30 15681 H 1479.6 -0.690489 -2.91329 0
M  V30 15682 H 1477.15 -0.3335 -1.40085 0
M  V30 15683 H 1479.1 1.52495 -3.9284 0
M  V30 15684 H 1477.82 1.80969 -2.71878 0
M  V30 15685 H 1476.48 -0.101605 -3.66459 0
M  V30 15686 H 1476.13 2.22531 -4.51098 0
M  V30 15687 H 1475.83 1.0189 -5.78699 0
M  V30 15688 H 1477.35 1.95132 -5.78581 0
M  V30 15689 H 1478.77 -0.319272 -5.7241 0
M  V30 15690 H 1477.17 -1.09041 -5.9011 0
M  V30 15691 H 1478.24 -1.59292 -4.57989 0
M  V30 15692 N 1479.58 1.53054 -0.375806 0
M  V30 15693 C 1480.51 2.28973 0.45754 0
M  V30 15694 C 1481.49 1.31812 1.07516 0
M  V30 15695 O 1482.67 1.60693 1.09048 0
M  V30 15696 C 1479.8 3.08657 1.59212 0
M  V30 15697 C 1478.76 4.1359 1.10123 0
M  V30 15698 C 1478.08 4.81417 2.32684 0
M  V30 15699 C 1479.38 5.21994 0.17872 0
M  V30 15700 H 1481.08 2.98883 -0.175872 0
M  V30 15701 H 1478.62 1.43743 -0.0860253 0
M  V30 15702 H 1480.58 3.6052 2.18182 0
M  V30 15703 H 1479.3 2.36456 2.25291 0
M  V30 15704 H 1477.96 3.62688 0.534151 0
M  V30 15705 H 1477.61 4.05778 2.97243 0
M  V30 15706 H 1477.31 5.52332 2.00506 0
M  V30 15707 H 1478.83 5.36079 2.92322 0
M  V30 15708 H 1480.25 5.69298 0.676204 0
M  V30 15709 H 1478.64 6.00077 -0.0526605 0
M  V30 15710 H 1479.71 4.78646 -0.776246 0
M  V30 15711 N 1481.06 0.105248 1.57248 0
M  V30 15712 C 1482.3 -0.556054 1.94716 0
M  V30 15713 C 1482.63 -1.67557 0.987669 0
M  V30 15714 O 1481.89 -1.95698 0.00905706 0
M  V30 15715 C 1482.19 -1.14178 3.38671 0
M  V30 15716 C 1481.85 -0.145022 4.50667 0
M  V30 15717 C 1480.51 0.129099 4.81027 0
M  V30 15718 C 1482.87 0.535015 5.18447 0
M  V30 15719 C 1480.19 1.08978 5.7649 0
M  V30 15720 C 1482.55 1.48423 6.14942 0
M  V30 15721 C 1481.21 1.76648 6.43702 0
M  V30 15722 H 1480.48 -0.203475 0.712516 0
M  V30 15723 H 1483.13 0.183237 1.90621 0
M  V30 15724 H 1481.43 -1.95754 3.39393 0
M  V30 15725 H 1483.13 -1.66132 3.64967 0
M  V30 15726 H 1479.72 -0.36886 4.2701 0
M  V30 15727 H 1483.9 0.336391 4.95159 0
M  V30 15728 H 1479.16 1.31535 5.97083 0
M  V30 15729 H 1483.33 2.01693 6.66553 0
M  V30 15730 H 1480.96 2.51245 7.17482 0
M  V30 15731 N 1482.53 -1.56697 -0.168486 0
M  V30 15732 C 1483.5 -1.95744 -1.19235 0
M  V30 15733 C 1484.5 -0.841419 -1.37028 0
M  V30 15734 O 1485.69 -1.10842 -1.34386 0
M  V30 15735 C 1482.82 -2.25471 -2.55686 0
M  V30 15736 H 1484.01 -2.87368 -0.857892 0
M  V30 15737 H 1481.57 -1.50798 -0.411041 0
M  V30 15738 H 1482.3 -1.36571 -2.94141 0
M  V30 15739 H 1482.09 -3.06822 -2.44137 0
M  V30 15740 H 1483.58 -2.56593 -3.29469 0
M  V30 15741 N 1484.01 0.437135 -1.51416 0
M  V30 15742 C 1484.94 1.54894 -1.68939 0
M  V30 15743 C 1485.96 1.52493 -0.570059 0
M  V30 15744 O 1487.15 1.57266 -0.844381 0
M  V30 15745 C 1484.25 2.9381 -1.68904 0
M  V30 15746 C 1483.42 3.20714 -2.97425 0
M  V30 15747 C 1482.48 4.39355 -2.89575 0
M  V30 15748 O 1481.5 4.37999 -3.63519 0
M  V30 15749 N 1482.71 5.42931 -2.05441 0
M  V30 15750 H 1485.47 1.40267 -2.64849 0
M  V30 15751 H 1483.03 0.626075 -1.49305 0
M  V30 15752 H 1485.02 3.71201 -1.61221 0
M  V30 15753 H 1483.59 3.02034 -0.805871 0
M  V30 15754 H 1482.81 2.31621 -3.18975 0
M  V30 15755 H 1484.1 3.35516 -3.825 0
M  V30 15756 H 1483.5 5.4687 -1.44742 0
M  V30 15757 H 1482.06 6.19173 -2.03636 0
M  V30 15758 N 1485.49 1.41566 0.692592 0
M  V30 15759 C 1486.42 1.39582 1.81795 0
M  V30 15760 C 1487.44 0.29754 1.60058 0
M  V30 15761 O 1488.62 0.559463 1.69506 0
M  V30 15762 C 1485.72 1.15506 3.18609 0
M  V30 15763 C 1484.9 2.37432 3.67349 0
M  V30 15764 C 1483.96 2.09168 4.82841 0
M  V30 15765 O 1482.98 2.8223 4.94303 0
M  V30 15766 N 1484.18 1.08377 5.70294 0
M  V30 15767 H 1486.95 2.36577 1.83988 0
M  V30 15768 H 1484.51 1.36216 0.875026 0
M  V30 15769 H 1486.5 0.945452 3.93501 0
M  V30 15770 H 1485.07 0.270987 3.11423 0
M  V30 15771 H 1484.29 2.74076 2.8333 0
M  V30 15772 H 1485.58 3.18661 3.96652 0
M  V30 15773 H 1484.98 0.479122 5.63667 0
M  V30 15774 H 1483.54 0.934042 6.45073 0
M  V30 15775 N 1486.97 -0.927146 1.27443 0
M  V30 15776 C 1488.22 -1.66941 1.13197 0
M  V30 15777 C 1488.53 -1.92939 -0.32156 0
M  V30 15778 O 1489.74 -2.65124 -0.584931 0
M  V30 15779 C 1488.19 -3.00677 1.97791 0
M  V30 15780 C 1487.8 -2.82376 3.47805 0
M  V30 15781 C 1489.54 -3.78499 1.92195 0
M  V30 15782 C 1487.45 -4.1167 4.24596 0
M  V30 15783 H 1486.38 -0.626171 0.420031 0
M  V30 15784 H 1489.03 -1.02997 1.51868 0
M  V30 15785 H 1487.41 -3.65681 1.51965 0
M  V30 15786 H 1488.59 -2.26135 4.01497 0
M  V30 15787 H 1486.9 -2.17982 3.54786 0
M  V30 15788 H 1489.5 -4.74312 2.46844 0
M  V30 15789 H 1489.84 -4.0655 0.895702 0
M  V30 15790 H 1490.38 -3.20292 2.35919 0
M  V30 15791 H 1487.12 -3.88798 5.27747 0
M  V30 15792 H 1486.64 -4.67573 3.75681 0
M  V30 15793 H 1488.31 -4.80028 4.338 0
M  V30 15794 N 1488.45 -1.09474 -1.13372 0
M  V30 15795 C 1489.69 -0.840753 -1.86308 0
M  V30 15796 C 1490.05 0.622327 -1.81635 0
M  V30 15797 O 1491.25 0.992265 -2.49815 0
M  V30 15798 C 1489.52 -1.3618 -3.30439 0
M  V30 15799 S 1491.08 -1.24176 -4.20863 0
M  V30 15800 H 1487.9 -0.304071 -0.642699 0
M  V30 15801 H 1490.5 -1.39822 -1.36639 0
M  V30 15802 H 1489.21 -2.42087 -3.31394 0
M  V30 15803 H 1488.74 -0.800485 -3.8517 0
M  V30 15804 H 1490.75 -0.193021 -4.95824 0
M  V30 15805 N 1489.92 1.30607 -0.882012 0
M  V30 15806 C 1490.83 2.31967 -0.350503 0
M  V30 15807 C 1491.85 1.6522 0.54575 0
M  V30 15808 O 1493.03 1.96544 0.439581 0
M  V30 15809 C 1490.09 3.44037 0.428924 0
M  V30 15810 C 1489.15 4.26417 -0.496727 0
M  V30 15811 C 1488.39 5.33135 0.245597 0
M  V30 15812 O 1488.61 5.51077 1.47209 0
M  V30 15813 O 1487.54 6.00551 -0.402767 0
M  V30 15814 H 1491.37 2.79374 -1.19095 0
M  V30 15815 H 1488.95 1.34723 -0.645754 0
M  V30 15816 H 1490.84 4.12314 0.870346 0
M  V30 15817 H 1489.51 2.9877 1.24573 0
M  V30 15818 H 1488.42 3.60848 -0.986899 0
M  V30 15819 H 1489.75 4.7528 -1.27945 0
M  V30 15820 N 1491.4 0.642663 1.43901 0
M  V30 15821 C 1492.65 0.151478 2.01532 0
M  V30 15822 C 1492.97 -1.23519 1.50891 0
M  V30 15823 O 1492.24 -1.82299 0.717197 0
M  V30 15824 H 1490.82 0.0530091 0.745117 0
M  V30 15825 H 1493.48 0.831958 1.76251 0
M  V30 15826 H 1492.58 0.127995 3.11837 0
M  V30 15827 N 1492.88 -1.52852 0.383918 0
M  V30 15828 C 1493.81 -2.22704 -0.497825 0
M  V30 15829 C 1494.79 -1.22573 -1.06839 0
M  V30 15830 O 1495.98 -1.51541 -1.12105 0
M  V30 15831 C 1493.1 -2.93606 -1.68858 0
M  V30 15832 C 1492.15 -4.07962 -1.24376 0
M  V30 15833 S 1492.98 -5.35007 -0.229773 0
M  V30 15834 C 1494.14 -6.09429 -1.42643 0
M  V30 15835 H 1494.37 -2.97147 0.0953535 0
M  V30 15836 H 1491.9 -1.53482 0.168084 0
M  V30 15837 H 1493.86 -3.35067 -2.3715 0
M  V30 15838 H 1492.52 -2.18853 -2.25304 0
M  V30 15839 H 1491.72 -4.56654 -2.13269 0
M  V30 15840 H 1491.32 -3.68486 -0.639823 0
M  V30 15841 H 1493.61 -6.35274 -2.35443 0
M  V30 15842 H 1494.55 -7.01278 -0.980541 0
M  V30 15843 H 1494.96 -5.40128 -1.6408 0
M  V30 15844 N 1494.36 -0.113586 -1.5719 0
M  V30 15845 C 1495.32 0.824258 -2.13866 0
M  V30 15846 C 1496.32 1.19831 -1.07224 0
M  V30 15847 O 1497.51 1.12471 -1.33026 0
M  V30 15848 C 1494.64 2.11391 -2.67445 0
M  V30 15849 H 1495.84 0.331803 -2.98059 0
M  V30 15850 H 1493.39 0.135599 -1.55711 0
M  V30 15851 H 1494.13 2.65079 -1.86824 0
M  V30 15852 H 1493.91 1.85523 -3.45433 0
M  V30 15853 H 1495.4 2.78443 -3.11222 0
M  V30 15854 N 1495.84 1.56784 0.160173 0
M  V30 15855 C 1497.07 1.86496 0.888969 0
M  V30 15856 C 1497.48 0.698244 1.75844 0
M  V30 15857 O 1496.82 -0.341543 1.80497 0
M  V30 15858 C 1496.88 3.10758 1.80748 0
M  V30 15859 C 1496.54 4.43152 1.1165 0
M  V30 15860 C 1497.54 5.1771 0.476643 0
M  V30 15861 C 1495.23 4.89883 1.10993 0
M  V30 15862 C 1497.22 6.37198 -0.160552 0
M  V30 15863 C 1494.91 6.09298 0.468916 0
M  V30 15864 C 1495.91 6.828 -0.165211 0
M  V30 15865 O 1495.59 7.99948 -0.796092 0
M  V30 15866 H 1495.33 0.622688 0.263128 0
M  V30 15867 H 1497.88 2.04762 0.161706 0
M  V30 15868 H 1496.11 2.88466 2.57535 0
M  V30 15869 H 1497.8 3.26825 2.40708 0
M  V30 15870 H 1498.56 4.82682 0.473616 0
M  V30 15871 H 1494.44 4.32605 1.59292 0
M  V30 15872 H 1497.99 6.94508 -0.656107 0
M  V30 15873 H 1493.88 6.4379 0.469565 0
M  V30 15874 H 1494.65 8.15532 -0.696448 0
M  V30 15875 N 1497.32 -0.429099 1.51646 0
M  V30 15876 C 1498.25 -1.52867 1.76505 0
M  V30 15877 C 1499.23 -1.58586 0.615178 0
M  V30 15878 O 1500.41 -1.74182 0.858742 0
M  V30 15879 C 1497.54 -2.90875 1.8976 0
M  V30 15880 C 1496.5 -3.00014 3.05247 0
M  V30 15881 C 1495.82 -4.40082 3.03696 0
M  V30 15882 C 1497.12 -2.73334 4.45068 0
M  V30 15883 H 1498.82 -1.32315 2.68576 0
M  V30 15884 H 1496.36 -0.635091 1.29238 0
M  V30 15885 H 1498.31 -3.67765 2.05734 0
M  V30 15886 H 1497.04 -3.12677 0.943442 0
M  V30 15887 H 1495.7 -2.25565 2.88991 0
M  V30 15888 H 1495.35 -4.58864 2.06042 0
M  V30 15889 H 1495.05 -4.47125 3.81252 0
M  V30 15890 H 1496.57 -5.18935 3.21774 0
M  V30 15891 H 1497.98 -3.39954 4.61632 0
M  V30 15892 H 1496.38 -2.91777 5.24391 0
M  V30 15893 H 1497.45 -1.68889 4.54538 0
M  V30 15894 N 1498.79 -1.41931 -0.685074 0
M  V30 15895 C 1499.74 -1.41066 -1.79121 0
M  V30 15896 C 1500.73 -0.283467 -1.58383 0
M  V30 15897 O 1501.92 -0.524931 -1.69037 0
M  V30 15898 C 1499.05 -1.30551 -3.17508 0
M  V30 15899 C 1498.13 -2.48174 -3.43905 0
M  V30 15900 N 1498.53 -3.73621 -3.40941 0
M  V30 15901 C 1496.82 -2.42213 -3.74498 0
M  V30 15902 C 1497.52 -4.51693 -3.66536 0
M  V30 15903 N 1496.5 -3.81955 -3.86796 0
M  V30 15904 H 1500.3 -2.35965 -1.75208 0
M  V30 15905 H 1497.82 -1.36135 -0.885498 0
M  V30 15906 H 1499.81 -1.28013 -3.9676 0
M  V30 15907 H 1498.47 -0.366454 -3.22625 0
M  V30 15908 H 1499.48 -4.0636 -3.21079 0
M  V30 15909 H 1496.16 -1.56835 -3.86923 0
M  V30 15910 H 1497.55 -5.60654 -3.70292 0
M  V30 15911 N 1500.27 0.920374 -1.27933 0
M  V30 15912 C 1501.23 2.0035 -1.11321 0
M  V30 15913 C 1502.23 1.60706 -0.0549132 0
M  V30 15914 O 1503.42 1.71595 -0.300134 0
M  V30 15915 C 1500.56 3.33681 -0.69782 0
M  V30 15916 H 1501.75 2.16518 -2.07509 0
M  V30 15917 H 1499.3 1.10216 -1.10825 0
M  V30 15918 H 1500.04 3.23214 0.265122 0
M  V30 15919 H 1499.82 3.63815 -1.46223 0
M  V30 15920 H 1501.31 4.13208 -0.604048 0
M  V30 15921 N 1501.75 1.10074 1.1279 0
M  V30 15922 C 1502.68 0.704023 2.1812 0
M  V30 15923 C 1503.69 -0.25742 1.60752 0
M  V30 15924 O 1504.88 -0.0424559 1.7845 0
M  V30 15925 C 1501.98 0.0176666 3.38895 0
M  V30 15926 C 1501.16 1.00234 4.2576 0
M  V30 15927 C 1500.22 0.348158 5.25047 0
M  V30 15928 O 1499.24 0.997821 5.60386 0
M  V30 15929 N 1500.44 -0.894955 5.7356 0
M  V30 15930 H 1503.21 1.61024 2.52767 0
M  V30 15931 H 1500.77 0.989068 1.28176 0
M  V30 15932 H 1502.76 -0.431346 4.02395 0
M  V30 15933 H 1501.33 -0.7909 3.02429 0
M  V30 15934 H 1500.55 1.62972 3.58934 0
M  V30 15935 H 1501.84 1.669 4.80647 0
M  V30 15936 H 1501.24 -1.4422 5.47007 0
M  V30 15937 H 1499.79 -1.28718 6.38964 0
M  V30 15938 N 1503.23 -1.30138 0.888926 0
M  V30 15939 C 1504.18 -2.25598 0.33005 0
M  V30 15940 C 1505.16 -1.51434 -0.543751 0
M  V30 15941 O 1506.35 -1.72706 -0.387529 0
M  V30 15942 C 1503.48 -3.40326 -0.450925 0
M  V30 15943 C 1502.57 -4.21841 0.437187 0
M  V30 15944 N 1502.96 -4.81803 1.53947 0
M  V30 15945 C 1501.26 -4.45391 0.233015 0
M  V30 15946 C 1501.96 -5.42907 2.0887 0
M  V30 15947 N 1500.93 -5.25709 1.38314 0
M  V30 15948 H 1504.74 -2.6951 1.17224 0
M  V30 15949 H 1502.25 -1.44623 0.738771 0
M  V30 15950 H 1504.25 -4.07764 -0.867971 0
M  V30 15951 H 1502.91 -2.97953 -1.2905 0
M  V30 15952 H 1503.92 -4.80904 1.92229 0
M  V30 15953 H 1500.6 -4.13603 -0.569074 0
M  V30 15954 H 1501.99 -6.00478 3.01457 0
M  V30 15955 N 1504.71 -0.650285 -1.43559 0
M  V30 15956 C 1505.94 -0.169893 -2.059 0
M  V30 15957 C 1506.34 1.16848 -1.48806 0
M  V30 15958 O 1505.69 1.73177 -0.612827 0
M  V30 15959 C 1505.75 -0.00117055 -3.595 0
M  V30 15960 C 1505.41 -1.26438 -4.39161 0
M  V30 15961 C 1506.41 -2.19245 -4.7141 0
M  V30 15962 C 1504.09 -1.50514 -4.79219 0
M  V30 15963 C 1506.09 -3.34424 -5.42623 0
M  V30 15964 C 1503.78 -2.65987 -5.50177 0
M  V30 15965 C 1504.77 -3.57767 -5.81801 0
M  V30 15966 O 1504.46 -4.71223 -6.51309 0
M  V30 15967 H 1504.19 -0.0858397 -0.670528 0
M  V30 15968 H 1506.75 -0.890321 -1.85101 0
M  V30 15969 H 1504.98 0.774599 -3.78863 0
M  V30 15970 H 1506.67 0.436206 -4.03549 0
M  V30 15971 H 1507.43 -2.01885 -4.40985 0
M  V30 15972 H 1503.31 -0.799577 -4.54013 0
M  V30 15973 H 1506.86 -4.06082 -5.67224 0
M  V30 15974 H 1502.75 -2.83282 -5.80019 0
M  V30 15975 H 1503.52 -4.70451 -6.6979 0
M  V30 15976 N 1506.18 1.52647 -0.392018 0
M  V30 15977 C 1507.43 2.00798 0.19056 0
M  V30 15978 C 1507.75 1.28265 1.47673 0
M  V30 15979 O 1508.95 1.67142 2.13953 0
M  V30 15980 C 1507.41 3.57779 0.390148 0
M  V30 15981 C 1507.02 4.39213 -0.882933 0
M  V30 15982 C 1508.76 4.14211 0.928945 0
M  V30 15983 C 1506.67 5.87801 -0.651474 0
M  V30 15984 H 1505.6 0.750262 0.0749879 0
M  V30 15985 H 1508.25 1.7613 -0.514835 0
M  V30 15986 H 1506.63 3.78707 1.15746 0
M  V30 15987 H 1507.8 4.30051 -1.65507 0
M  V30 15988 H 1506.12 3.94015 -1.34688 0
M  V30 15989 H 1508.72 5.22884 1.11787 0
M  V30 15990 H 1509.06 3.70475 1.89878 0
M  V30 15991 H 1509.59 3.97185 0.221135 0
M  V30 15992 H 1506.33 6.35864 -1.59239 0
M  V30 15993 H 1505.85 5.99744 0.0816786 0
M  V30 15994 H 1507.53 6.46363 -0.287057 0
M  V30 15995 N 1507.66 0.121921 1.57128 0
M  V30 15996 C 1508.61 -0.838414 2.12025 0
M  V30 15997 C 1509.6 -1.22623 1.04175 0
M  V30 15998 O 1510.79 -1.19683 1.30403 0
M  V30 15999 C 1507.92 -2.08733 2.72554 0
M  V30 16000 C 1507 -1.72374 3.87489 0
M  V30 16001 N 1507.39 -1.06706 4.94416 0
M  V30 16002 C 1505.69 -2.01813 3.97728 0
M  V30 16003 C 1506.39 -0.89551 5.74766 0
M  V30 16004 N 1505.37 -1.42144 5.24687 0
M  V30 16005 H 1509.17 -0.3272 2.92073 0
M  V30 16006 H 1506.69 -0.0804553 1.62201 0
M  V30 16007 H 1508.68 -2.78503 3.10229 0
M  V30 16008 H 1507.34 -2.60395 1.9397 0
M  V30 16009 H 1508.35 -0.730702 5.12719 0
M  V30 16010 H 1505.03 -2.55502 3.3019 0
M  V30 16011 H 1506.42 -0.379836 6.70826 0
M  V30 16012 N 1509.14 -1.56867 -0.151857 0
M  V30 16013 C 1510.56 -1.51422 -0.504328 0
M  V30 16014 C 1510.76 -0.829524 -1.83633 0
M  V30 16015 O 1509.81 -0.398018 -2.49343 0
M  V30 16016 C 1511.13 -2.96185 -0.519117 0
M  V30 16017 C 1512.67 -3.07098 -0.60497 0
M  V30 16018 C 1513.15 -4.53357 -0.650468 0
M  V30 16019 N 1514.64 -4.57682 -0.712825 0
M  V30 16020 C 1515.37 -5.68221 -0.768931 0
M  V30 16021 N 1514.87 -6.88342 -0.784678 0
M  V30 16022 N 1516.66 -5.56241 -0.809441 0
M  V30 16023 H 1508.81 -1.99777 0.721316 0
M  V30 16024 H 1511.08 -0.910951 0.262436 0
M  V30 16025 H 1510.78 -3.49516 0.391315 0
M  V30 16026 H 1510.66 -3.51877 -1.35876 0
M  V30 16027 H 1513.04 -2.53789 -1.50582 0
M  V30 16028 H 1513.13 -2.54458 0.261722 0
M  V30 16029 H 1512.77 -5.07303 0.246207 0
M  V30 16030 H 1512.7 -5.03775 -1.53358 0
M  V30 16031 H 1515.19 -3.71206 -0.708151 0
M  V30 16032 H 1515.5 -7.68339 -0.829202 0
M  V30 16033 H 1513.85 -6.90913 -0.752634 0
M  V30 16034 H 1517.04 -4.61312 -0.794274 0
M  V30 16035 H 1517.21 -6.42405 -0.849701 0
M  V30 16036 N 1510.62 0.421051 -1.51871 0
M  V30 16037 C 1511.9 1.18133 -1.55897 0
M  V30 16038 C 1512.28 2.08459 -0.332876 0
M  V30 16039 O 1511.62 2.18114 0.681052 0
M  V30 16040 C 1511.83 1.96902 -2.88151 0
M  V30 16041 C 1513.18 2.53382 -3.4071 0
M  V30 16042 O 1514.21 2.07095 -2.89811 0
M  V30 16043 O 1513.06 3.37846 -4.29561 0
M  V30 16044 H 1510.16 0.538721 -0.627462 0
M  V30 16045 H 1512.7 0.428798 -1.64193 0
M  V30 16046 H 1511.48 1.30659 -3.68841 0
M  V30 16047 H 1511.1 2.79185 -2.83093 0
M  V30 16048 N 1512.1 1.42293 0.677538 0
M  V30 16049 C 1513.03 1.48344 1.80323 0
M  V30 16050 C 1514.01 0.340276 1.66662 0
M  V30 16051 O 1515.19 0.554209 1.86124 0
M  V30 16052 C 1512.32 1.38247 3.18599 0
M  V30 16053 C 1511.28 2.50562 3.46991 0
M  V30 16054 C 1510.6 2.25524 4.84812 0
M  V30 16055 C 1511.9 3.92877 3.44158 0
M  V30 16056 H 1513.6 2.42558 1.75516 0
M  V30 16057 H 1511.14 1.16746 0.842999 0
M  V30 16058 H 1513.1 1.41089 3.97079 0
M  V30 16059 H 1511.82 0.405255 3.24076 0
M  V30 16060 H 1510.48 2.47032 2.7087 0
M  V30 16061 H 1510.13 1.26102 4.86937 0
M  V30 16062 H 1509.83 3.00797 5.04772 0
M  V30 16063 H 1511.35 2.3011 5.65581 0
M  V30 16064 H 1512.76 3.98024 4.12613 0
M  V30 16065 H 1511.16 4.6798 3.75653 0
M  V30 16066 H 1512.23 4.19743 2.42783 0
M  V30 16067 N 1513.57 -0.913576 1.28419 0
M  V30 16068 C 1514.54 -1.99757 1.12382 0
M  V30 16069 C 1515.54 -1.60675 0.063435 0
M  V30 16070 O 1516.73 -1.71433 0.30923 0
M  V30 16071 C 1513.86 -3.33307 0.715506 0
M  V30 16072 H 1515.05 -2.15414 2.08655 0
M  V30 16073 H 1512.61 -1.09626 1.11408 0
M  V30 16074 H 1513.34 -3.23351 -0.247977 0
M  V30 16075 H 1513.13 -3.63034 1.4815 0
M  V30 16076 H 1514.62 -4.12882 0.625953 0
M  V30 16077 N 1515.05 -1.1067 -1.12204 0
M  V30 16078 C 1516.02 -0.761145 -2.16193 0
M  V30 16079 C 1517.02 0.215599 -1.59348 0
M  V30 16080 O 1518.21 -0.00786723 -1.74198 0
M  V30 16081 C 1515.34 -0.127863 -3.4066 0
M  V30 16082 H 1516.53 -1.68225 -2.48275 0
M  V30 16083 H 1514.08 -0.907542 -1.27253 0
M  V30 16084 H 1514.82 0.803851 -3.14179 0
M  V30 16085 H 1514.6 -0.83085 -3.83196 0
M  V30 16086 H 1516.09 0.0980593 -4.17485 0
M  V30 16087 N 1516.53 1.29665 -0.895815 0
M  V30 16088 C 1517.95 1.4824 -0.591355 0
M  V30 16089 C 1518.15 1.81839 0.86815 0
M  V30 16090 O 1517.2 1.91251 1.64861 0
M  V30 16091 C 1518.52 2.59814 -1.51384 0
M  V30 16092 C 1520.06 2.73691 -1.51862 0
M  V30 16093 C 1520.54 3.8839 -2.42729 0
M  V30 16094 N 1522.03 3.95717 -2.40754 0
M  V30 16095 C 1522.76 4.83804 -3.07769 0
M  V30 16096 N 1522.26 5.7661 -3.84048 0
M  V30 16097 N 1524.05 4.77263 -2.96946 0
M  V30 16098 H 1516.2 1.06131 -1.83984 0
M  V30 16099 H 1518.47 0.526819 -0.788141 0
M  V30 16100 H 1518.17 2.4184 -2.55355 0
M  V30 16101 H 1518.05 3.56532 -1.23147 0
M  V30 16102 H 1520.43 2.91064 -0.486375 0
M  V30 16103 H 1520.52 1.77561 -1.84135 0
M  V30 16104 H 1520.16 3.71773 -3.46045 0
M  V30 16105 H 1520.09 4.8388 -2.07767 0
M  V30 16106 H 1522.58 3.29334 -1.8533 0
M  V30 16107 H 1522.89 6.40611 -4.32247 0
M  V30 16108 H 1521.24 5.76507 -3.88155 0
M  V30 16109 H 1524.43 4.03744 -2.36871 0
M  V30 16110 H 1524.6 5.45701 -3.49448 0
M  V30 16111 N 1518.01 0.657889 1.43212 0
M  V30 16112 C 1518.96 -0.0427288 2.32561 0
M  V30 16113 C 1519.95 -0.808236 1.48875 0
M  V30 16114 O 1521.16 -0.718109 1.65055 0
M  V30 16115 H 1517.53 -0.0326049 0.751293 0
M  V30 16116 H 1519.5 0.728503 2.89371 0
M  V30 16117 C 1518.25 -0.99216 3.33244 0
M  V30 16118 H 1517.57 -0.412542 3.97666 0
M  V30 16119 H 1519.01 -1.45138 3.98385 0
M  V30 16120 C 1517.47 -2.09044 2.64201 0
M  V30 16121 O 1518 -3.17481 2.46107 0
M  V30 16122 N 1516.21 -1.85732 2.23499 0
M  V30 16123 H 1515.76 -0.975483 2.38416 0
M  V30 16124 H 1515.71 -2.5941 1.77634 0
M  V30 16125 N 1519.49 -1.52437 0.400108 0
M  V30 16126 C 1520.73 -2.0201 -0.17887 0
M  V30 16127 C 1521.07 -1.2856 -1.45554 0
M  V30 16128 O 1520.34 -0.389236 -1.90565 0
M  V30 16129 C 1520.62 -3.57453 -0.435784 0
M  V30 16130 C 1520.48 -4.41562 0.85693 0
M  V30 16131 C 1521.8 -4.228 -1.2218 0
M  V30 16132 H 1518.91 -0.734256 -0.063535 0
M  V30 16133 H 1521.56 -1.82406 0.531801 0
M  V30 16134 H 1519.71 -3.74288 -1.04117 0
M  V30 16135 H 1521.38 -4.36456 1.49344 0
M  V30 16136 H 1519.62 -4.08138 1.46989 0
M  V30 16137 H 1520.29 -5.48374 0.631675 0
M  V30 16138 H 1522.77 -4.10009 -0.709359 0
M  V30 16139 H 1521.64 -5.3152 -1.37031 0
M  V30 16140 H 1521.91 -3.81153 -2.23998 0
M  V30 16141 N 1520.96 -0.130252 -1.57061 0
M  V30 16142 C 1521.89 0.812189 -2.18919 0
M  V30 16143 C 1522.88 1.2692 -1.13249 0
M  V30 16144 O 1524.06 1.32978 -1.41529 0
M  V30 16145 C 1521.19 2.05803 -2.79754 0
M  V30 16146 C 1520.14 1.73841 -3.91105 0
M  V30 16147 C 1519.47 3.05549 -4.38799 0
M  V30 16148 C 1520.77 0.997991 -5.12677 0
M  V30 16149 H 1522.46 0.296692 -2.97926 0
M  V30 16150 H 1520.01 0.141265 -1.43305 0
M  V30 16151 H 1521.96 2.72201 -3.21691 0
M  V30 16152 H 1520.69 2.59697 -1.98053 0
M  V30 16153 H 1519.35 1.09828 -3.49762 0
M  V30 16154 H 1518.99 3.57399 -3.53942 0
M  V30 16155 H 1518.69 2.84932 -5.13894 0
M  V30 16156 H 1520.22 3.73045 -4.83394 0
M  V30 16157 H 1521.63 1.56372 -5.51562 0
M  V30 16158 H 1520.03 0.892378 -5.93428 0
M  V30 16159 H 1521.1 -0.0132936 -4.84898 0
M  V30 16160 N 1522.44 1.56945 0.143535 0
M  V30 16161 C 1523.37 2.0156 1.17881 0
M  V30 16162 C 1524.35 0.895744 1.44604 0
M  V30 16163 O 1525.54 1.16379 1.55466 0
M  V30 16164 C 1522.67 2.39915 2.51114 0
M  V30 16165 C 1521.62 3.55117 2.38905 0
M  V30 16166 C 1520.95 3.79296 3.7688 0
M  V30 16167 C 1522.25 4.87668 1.87021 0
M  V30 16168 H 1523.94 2.88296 0.80783 0
M  V30 16169 H 1521.49 1.38698 0.387149 0
M  V30 16170 H 1523.44 2.69727 3.23767 0
M  V30 16171 H 1522.17 1.5012 2.90055 0
M  V30 16172 H 1520.83 3.25476 1.68703 0
M  V30 16173 H 1520.47 2.86747 4.13262 0
M  V30 16174 H 1520.17 4.56827 3.69571 0
M  V30 16175 H 1521.7 4.11537 4.51076 0
M  V30 16176 H 1523.11 5.16176 2.4947 0
M  V30 16177 H 1521.51 5.69029 1.90594 0
M  V30 16178 H 1522.58 4.77811 0.82611 0
M  V30 16179 N 1523.92 -0.412991 1.52093 0
M  V30 16180 C 1525.2 -1.17304 1.56522 0
M  V30 16181 C 1525.58 -2.0828 0.343926 0
M  V30 16182 O 1524.93 -2.18473 -0.669475 0
M  V30 16183 C 1525.14 -1.95371 2.89191 0
M  V30 16184 C 1526.48 -2.51571 3.42048 0
M  V30 16185 O 1527.51 -2.05555 2.90905 0
M  V30 16186 O 1526.37 -3.35563 4.31347 0
M  V30 16187 H 1523.46 -0.535386 0.63031 0
M  V30 16188 H 1526.01 -0.420084 1.64418 0
M  V30 16189 H 1524.78 -1.28701 3.69529 0
M  V30 16190 H 1524.4 -2.7768 2.84569 0
M  V30 16191 N 1525.4 -1.4265 -0.669982 0
M  V30 16192 C 1526.35 -1.46746 -1.80467 0
M  V30 16193 C 1527.34 -0.342698 -1.65897 0
M  V30 16194 O 1528.55 -0.515933 -1.72447 0
M  V30 16195 H 1524.92 -0.4597 -0.59513 0
M  V30 16196 H 1526.89 -2.42325 -1.7413 0
M  V30 16197 C 1525.64 -1.39141 -3.18646 0
M  V30 16198 H 1524.97 -2.24987 -3.30486 0
M  V30 16199 H 1526.41 -1.46068 -3.98045 0
M  V30 16200 C 1524.86 -0.106802 -3.36731 0
M  V30 16201 O 1525.39 0.838535 -3.9285 0
M  V30 16202 N 1523.6 -0.0223958 -2.90591 0
M  V30 16203 H 1523.15 -0.792469 -2.45108 0
M  V30 16204 H 1523.11 0.836462 -3.03069 0
M  V30 16205 N 1526.88 0.906753 -1.28902 0
M  V30 16206 C 1528.15 1.63637 -1.07155 0
M  V30 16207 C 1528.53 2.07527 0.386727 0
M  V30 16208 O 1527.88 1.82562 1.37417 0
M  V30 16209 C 1528.09 2.82256 -2.05263 0
M  V30 16210 C 1529.44 3.53109 -2.35794 0
M  V30 16211 O 1530.46 2.92414 -2.03402 0
M  V30 16212 O 1529.32 4.62512 -2.91109 0
M  V30 16213 H 1526.42 0.718194 -0.410032 0
M  V30 16214 H 1528.96 0.955442 -1.40248 0
M  V30 16215 H 1527.74 2.46968 -3.03517 0
M  V30 16216 H 1527.36 3.58059 -1.72857 0
M  V30 16217 N 1528.36 1.11264 1.11616 0
M  V30 16218 C 1529.77 0.846176 1.35322 0
M  V30 16219 C 1529.97 -0.530043 1.94404 0
M  V30 16220 O 1529.03 -1.28122 2.1758 0
M  V30 16221 C 1530.34 1.9528 2.28662 0
M  V30 16222 C 1531.89 1.98225 2.42231 0
M  V30 16223 C 1532.36 3.08086 3.38891 0
M  V30 16224 N 1533.85 3.07448 3.46453 0
M  V30 16225 C 1534.59 3.89094 4.21181 0
M  V30 16226 N 1534.09 4.80698 4.989 0
M  V30 16227 N 1535.88 3.77279 4.16674 0
M  V30 16228 H 1528.03 1.99958 0.716284 0
M  V30 16229 H 1530.29 0.869439 0.377862 0
M  V30 16230 H 1530 2.94381 1.92439 0
M  V30 16231 H 1529.87 1.84739 3.28864 0
M  V30 16232 H 1532.26 0.997517 2.77729 0
M  V30 16233 H 1532.34 2.12842 1.41887 0
M  V30 16234 H 1531.98 4.06784 3.0412 0
M  V30 16235 H 1531.91 2.90709 4.39085 0
M  V30 16236 H 1534.41 2.41077 2.91016 0
M  V30 16237 H 1534.72 5.39535 5.53282 0
M  V30 16238 H 1533.06 4.84721 4.98067 0
M  V30 16239 H 1536.25 3.05059 3.55044 0
M  V30 16240 H 1536.43 4.41142 4.74655 0
M  V30 16241 N 1529.83 -1.29188 0.902679 0
M  V30 16242 C 1530.76 -2.3006 0.399357 0
M  V30 16243 C 1531.74 -1.61724 -0.527199 0
M  V30 16244 O 1532.93 -1.89213 -0.437293 0
M  V30 16245 C 1530.06 -3.45309 -0.371331 0
M  V30 16246 C 1529.01 -4.25466 0.465068 0
M  V30 16247 C 1528.34 -5.32941 -0.433295 0
M  V30 16248 C 1529.64 -4.93287 1.71655 0
M  V30 16249 H 1531.33 -2.72409 1.24233 0
M  V30 16250 H 1528.88 -1.30958 0.598822 0
M  V30 16251 H 1530.83 -4.14955 -0.734207 0
M  V30 16252 H 1529.56 -3.01811 -1.24811 0
M  V30 16253 H 1528.22 -3.57532 0.810315 0
M  V30 16254 H 1527.86 -4.85688 -1.3083 0
M  V30 16255 H 1527.56 -5.87472 0.122657 0
M  V30 16256 H 1529.09 -6.05438 -0.792298 0
M  V30 16257 H 1530.5 -5.55353 1.42323 0
M  V30 16258 H 1528.9 -5.57763 2.21405 0
M  V30 16259 H 1529.97 -4.18406 2.45081 0
M  V30 16260 N 1531.31 -0.665475 -1.42861 0
M  V30 16261 C 1532.56 -0.184156 -2.01962 0
M  V30 16262 C 1532.89 1.20301 -1.52451 0
M  V30 16263 O 1532.17 1.80573 -0.722756 0
M  V30 16264 C 1532.45 -0.208497 -3.59496 0
M  V30 16265 C 1532.3 -1.63045 -4.19209 0
M  V30 16266 C 1533.62 0.448421 -4.3781 0
M  V30 16267 H 1530.74 -0.0683924 -0.73382 0
M  V30 16268 H 1533.38 -0.84849 -1.70002 0
M  V30 16269 H 1531.53 0.357179 -3.86855 0
M  V30 16270 H 1533.2 -2.24766 -4.02837 0
M  V30 16271 H 1531.45 -2.17401 -3.75392 0
M  V30 16272 H 1532.12 -1.59924 -5.28326 0
M  V30 16273 H 1534.59 -0.0330053 -4.16087 0
M  V30 16274 H 1533.47 0.400713 -5.47435 0
M  V30 16275 H 1533.73 1.52454 -4.14982 0
M  V30 16276 N 1532.79 1.52222 -0.408187 0
M  V30 16277 C 1533.74 2.26988 0.417767 0
M  V30 16278 C 1534.71 1.29362 1.04185 0
M  V30 16279 O 1535.89 1.58223 1.06631 0
M  V30 16280 C 1533.03 3.09379 1.52901 0
M  V30 16281 C 1532.14 4.2196 0.92593 0
M  V30 16282 C 1531.28 4.91712 2.00979 0
M  V30 16283 C 1530.32 5.96258 1.3836 0
M  V30 16284 N 1529.46 6.59531 2.40756 0
M  V30 16285 H 1534.3 2.9714 -0.226228 0
M  V30 16286 H 1531.83 1.46581 -0.123402 0
M  V30 16287 H 1533.79 3.55452 2.18425 0
M  V30 16288 H 1532.42 2.41399 2.14304 0
M  V30 16289 H 1531.47 3.80064 0.159765 0
M  V30 16290 H 1532.78 4.96956 0.428497 0
M  V30 16291 H 1531.94 5.41186 2.74231 0
M  V30 16292 H 1530.68 4.16282 2.54087 0
M  V30 16293 H 1529.68 5.46104 0.636402 0
M  V30 16294 H 1530.91 6.7363 0.860218 0
M  V30 16295 H 1528.85 5.86931 2.92999 0
M  V30 16296 H 1528.77 7.30198 1.95822 0
M  V30 16297 H 1530.04 7.13643 3.13581 0
M  V30 16298 N 1534.27 0.138579 1.5699 0
M  V30 16299 C 1535.52 -0.514545 1.95026 0
M  V30 16300 C 1535.83 -1.66565 1.02544 0
M  V30 16301 O 1537.04 -2.38284 1.30126 0
M  V30 16302 C 1535.49 -0.966746 3.46673 0
M  V30 16303 C 1535.1 0.156969 4.47725 0
M  V30 16304 C 1536.84 -1.59014 3.93592 0
M  V30 16305 C 1534.75 -0.313031 5.90571 0
M  V30 16306 H 1533.68 -0.195991 0.728082 0
M  V30 16307 H 1536.33 0.221575 1.82157 0
M  V30 16308 H 1534.71 -1.75788 3.54845 0
M  V30 16309 H 1535.89 0.933728 4.51241 0
M  V30 16310 H 1534.2 0.688238 4.10673 0
M  V30 16311 H 1536.8 -1.95326 4.97747 0
M  V30 16312 H 1537.14 -2.47595 3.34668 0
M  V30 16313 H 1537.68 -0.864061 3.88302 0
M  V30 16314 H 1534.41 0.5372 6.53295 0
M  V30 16315 H 1533.93 -1.05585 5.90434 0
M  V30 16316 H 1535.61 -0.767826 6.42428 0
M  V30 16317 N 1535.75 -1.57019 -0.13521 0
M  V30 16318 C 1536.99 -1.83626 -0.844147 0
M  V30 16319 C 1537.31 -0.721298 -1.81169 0
M  V30 16320 O 1536.58 0.256095 -1.94219 0
M  V30 16321 H 1535.16 -0.677464 -0.314725 0
M  V30 16322 H 1537.83 -1.9449 -0.126399 0
M  V30 16323 H 1536.92 -2.78976 -1.39925 0
M  V30 16324 N 1537.22 0.404919 -1.52309 0
M  V30 16325 C 1538.5 1.16473 -1.57142 0
M  V30 16326 C 1538.88 2.08094 -0.354967 0
M  V30 16327 O 1538.23 2.18825 0.65788 0
M  V30 16328 C 1538.44 1.93834 -2.90223 0
M  V30 16329 C 1539.79 2.49754 -3.43378 0
M  V30 16330 O 1540.81 2.04009 -2.91991 0
M  V30 16331 O 1539.67 3.33271 -4.3312 0
M  V30 16332 H 1536.76 0.532036 -0.633141 0
M  V30 16333 H 1539.31 0.411359 -1.64639 0
M  V30 16334 H 1538.08 1.2674 -3.70206 0
M  V30 16335 H 1537.71 2.76167 -2.86038 0
M  V30 16336 N 1538.7 1.43003 0.662408 0
M  V30 16337 C 1539.95 1.44133 1.42239 0
M  V30 16338 C 1540.28 0.062249 1.944 0
M  V30 16339 O 1539.53 -0.931341 1.72118 0
M  V30 16340 C 1539.83 2.4231 2.62718 0
M  V30 16341 C 1539.5 3.88403 2.29028 0
M  V30 16342 C 1538.16 4.28194 2.19552 0
M  V30 16343 C 1540.51 4.80505 2.01902 0
M  V30 16344 C 1537.84 5.58052 1.81092 0
M  V30 16345 C 1540.19 6.10718 1.64943 0
M  V30 16346 C 1538.86 6.49496 1.53985 0
M  V30 16347 H 1538.13 0.527419 0.52049 0
M  V30 16348 H 1540.77 1.76024 0.75417 0
M  V30 16349 H 1539.08 2.03789 3.3463 0
M  V30 16350 H 1540.77 2.40442 3.20918 0
M  V30 16351 H 1537.36 3.56906 2.37311 0
M  V30 16352 H 1541.55 4.50542 2.08149 0
M  V30 16353 H 1536.8 5.86945 1.71187 0
M  V30 16354 H 1540.98 6.81564 1.42982 0
M  V30 16355 H 1538.61 7.50026 1.23954 0
M  V30 16356 N 1540.18 -0.899904 1.29381 0
M  V30 16357 C 1541.43 -1.64712 1.17109 0
M  V30 16358 C 1541.75 -1.93011 -0.277772 0
M  V30 16359 O 1541.02 -1.55604 -1.19013 0
M  V30 16360 H 1539.6 -0.610532 0.430418 0
M  V30 16361 H 1542.26 -1.07905 1.62304 0
M  V30 16362 H 1541.36 -2.60362 1.72098 0
M  V30 16363 N 1541.66 -1.11854 -1.11024 0
M  V30 16364 C 1542.59 -0.803129 -2.19253 0
M  V30 16365 C 1543.57 0.230417 -1.68532 0
M  V30 16366 O 1544.75 0.0929421 -1.93977 0
M  V30 16367 C 1541.88 -0.250265 -3.46397 0
M  V30 16368 C 1540.84 -1.21617 -4.10357 0
M  V30 16369 C 1540.16 -0.523821 -5.32128 0
M  V30 16370 C 1541.46 -2.56852 -4.54779 0
M  V30 16371 H 1543.16 -1.7081 -2.45895 0
M  V30 16372 H 1540.7 -0.822712 -1.18184 0
M  V30 16373 H 1542.66 -0.0173732 -4.21396 0
M  V30 16374 H 1541.38 0.690018 -3.19228 0
M  V30 16375 H 1540.04 -1.43477 -3.37357 0
M  V30 16376 H 1539.69 0.421408 -5.01232 0
M  V30 16377 H 1539.39 -1.16809 -5.75873 0
M  V30 16378 H 1540.91 -0.299823 -6.09863 0
M  V30 16379 H 1542.33 -2.39056 -5.21081 0
M  V30 16380 H 1540.72 -3.17301 -5.09353 0
M  V30 16381 H 1541.79 -3.15751 -3.68007 0
M  V30 16382 N 1543.14 1.28707 -0.909517 0
M  V30 16383 C 1544.1 2.25692 -0.39946 0
M  V30 16384 C 1545.1 1.53721 0.471848 0
M  V30 16385 O 1546.29 1.72008 0.275504 0
M  V30 16386 C 1543.42 3.38205 0.427793 0
M  V30 16387 H 1544.61 2.72326 -1.25613 0
M  V30 16388 H 1542.17 1.40317 -0.688535 0
M  V30 16389 H 1542.9 2.96926 1.30404 0
M  V30 16390 H 1542.69 3.91606 -0.19667 0
M  V30 16391 H 1544.18 4.10334 0.775634 0
M  V30 16392 N 1544.61 0.673042 1.42506 0
M  V30 16393 C 1545.56 -0.00638067 2.30799 0
M  V30 16394 C 1546.53 -0.794524 1.45865 0
M  V30 16395 O 1547.72 -0.767129 1.74699 0
M  V30 16396 C 1544.86 -0.952923 3.31683 0
M  V30 16397 C 1543.97 -0.158787 4.31708 0
M  V30 16398 C 1543.1 -1.10092 5.19666 0
M  V30 16399 C 1542.14 -0.29837 6.11372 0
M  V30 16400 N 1541.28 -1.19312 6.91888 0
M  V30 16401 H 1546.12 0.75237 2.88346 0
M  V30 16402 H 1543.66 0.382763 1.42033 0
M  V30 16403 H 1545.62 -1.51552 3.887 0
M  V30 16404 H 1544.25 -1.67832 2.75739 0
M  V30 16405 H 1543.3 0.520406 3.76823 0
M  V30 16406 H 1544.61 0.464385 4.96634 0
M  V30 16407 H 1543.76 -1.7335 5.81407 0
M  V30 16408 H 1542.5 -1.75798 4.54914 0
M  V30 16409 H 1541.51 0.347437 5.48701 0
M  V30 16410 H 1542.73 0.354569 6.78174 0
M  V30 16411 H 1540.68 -1.83661 6.29765 0
M  V30 16412 H 1540.6 -0.624986 7.53412 0
M  V30 16413 H 1541.86 -1.81323 7.58118 0
M  V30 16414 N 1546.09 -1.52004 0.416254 0
M  V30 16415 C 1547.06 -2.2579 -0.393882 0
M  V30 16416 C 1548.06 -1.28427 -0.967637 0
M  V30 16417 O 1549.25 -1.52311 -0.845396 0
M  V30 16418 C 1546.38 -3.03361 -1.55515 0
M  V30 16419 H 1547.57 -2.98835 0.252492 0
M  V30 16420 H 1545.12 -1.55384 0.168929 0
M  V30 16421 H 1545.86 -2.34682 -2.23818 0
M  V30 16422 H 1545.64 -3.74852 -1.15015 0
M  V30 16423 H 1547.13 -3.5931 -2.12805 0
M  V30 16424 N 1547.57 -0.146903 -1.56914 0
M  V30 16425 C 1548.82 0.504981 -1.96412 0
M  V30 16426 C 1549.15 1.64522 -1.0318 0
M  V30 16427 O 1548.42 1.94359 -0.0741728 0
M  V30 16428 C 1548.71 1.01125 -3.45609 0
M  V30 16429 C 1548.56 -0.127493 -4.49619 0
M  V30 16430 C 1549.88 1.89306 -3.97305 0
M  V30 16431 H 1547 0.182088 -0.714152 0
M  V30 16432 H 1549.64 -0.22811 -1.88626 0
M  V30 16433 H 1547.79 1.63595 -3.52376 0
M  V30 16434 H 1549.46 -0.763829 -4.54932 0
M  V30 16435 H 1547.71 -0.786649 -4.26608 0
M  V30 16436 H 1548.38 0.268453 -5.51347 0
M  V30 16437 H 1550.85 1.36664 -3.93017 0
M  V30 16438 H 1549.73 2.21638 -5.02163 0
M  V30 16439 H 1549.99 2.82996 -3.39655 0
M  V30 16440 N 1549.05 1.57088 0.126881 0
M  V30 16441 C 1550.46 1.73685 0.684865 0
M  V30 16442 C 1550.81 0.764401 1.80697 0
M  V30 16443 O 1549.94 -0.0644761 2.16304 0
M  V30 16444 C 1550.53 3.14933 1.24911 0
M  V30 16445 C 1549.09 3.33063 1.75346 0
M  V30 16446 C 1548.24 2.69575 0.649976 0
M  V30 16447 H 1551.19 1.58391 -0.0989715 0
M  V30 16448 H 1551.21 3.16047 2.11884 0
M  V30 16449 H 1550.72 3.85686 0.432204 0
M  V30 16450 H 1548.82 2.67339 2.59539 0
M  V30 16451 H 1548.93 4.41169 1.86833 0
M  V30 16452 H 1547.3 2.30592 1.08163 0
M  V30 16453 H 1548.08 3.42946 -0.15582 0
M  V30 16454 N 1550.53 -0.396836 1.52522 0
M  V30 16455 C 1551.44 -1.50871 1.79653 0
M  V30 16456 C 1552.45 -1.60043 0.682804 0
M  V30 16457 O 1553.63 -1.76527 0.96955 0
M  V30 16458 C 1550.69 -2.86485 1.95263 0
M  V30 16459 C 1549.75 -2.87099 3.19175 0
M  V30 16460 C 1548.99 -4.16244 3.34031 0
M  V30 16461 O 1549.21 -5.1079 2.5387 0
M  V30 16462 O 1548.14 -4.23962 4.27247 0
M  V30 16463 H 1551.97 -1.30878 2.74052 0
M  V30 16464 H 1549.56 -0.583908 1.37517 0
M  V30 16465 H 1551.44 -3.66895 2.07282 0
M  V30 16466 H 1550.11 -3.0652 1.04052 0
M  V30 16467 H 1549.02 -2.05497 3.12605 0
M  V30 16468 H 1550.35 -2.72014 4.10206 0
M  V30 16469 N 1552.01 -1.43353 -0.654814 0
M  V30 16470 C 1553.25 -1.44599 -1.41193 0
M  V30 16471 C 1553.57 -0.0707955 -1.94871 0
M  V30 16472 O 1552.84 0.893637 -1.7433 0
M  V30 16473 H 1551.42 -0.532373 -0.524011 0
M  V30 16474 H 1554.09 -1.78942 -0.772388 0
M  V30 16475 H 1553.18 -2.15761 -2.25508 0
M  V30 16476 N 1553.48 0.89303 -1.29857 0
M  V30 16477 C 1554.43 1.98497 -1.12173 0
M  V30 16478 C 1555.42 1.60852 -0.039207 0
M  V30 16479 O 1556.61 1.75055 -0.261652 0
M  V30 16480 C 1553.74 3.33674 -0.807259 0
M  V30 16481 C 1552.82 3.77658 -1.92965 0
M  V30 16482 N 1553.22 3.93814 -3.17402 0
M  V30 16483 C 1551.51 4.06988 -1.82419 0
M  V30 16484 C 1552.21 4.30988 -3.90671 0
M  V30 16485 N 1551.19 4.40403 -3.18662 0
M  V30 16486 H 1554.99 2.09068 -2.06562 0
M  V30 16487 H 1552.51 1.0823 -1.21078 0
M  V30 16488 H 1554.5 4.11617 -0.661603 0
M  V30 16489 H 1553.16 3.24445 0.128646 0
M  V30 16490 H 1554.17 3.79164 -3.52782 0
M  V30 16491 H 1550.85 4.06279 -0.961436 0
M  V30 16492 H 1552.24 4.51278 -4.97793 0
M  V30 16493 N 1554.96 1.12442 1.10429 0
M  V30 16494 C 1555.87 0.805377 2.20343 0
M  V30 16495 C 1556.89 -0.205836 1.72778 0
M  V30 16496 O 1558.06 -0.0394195 2.01361 0
M  V30 16497 C 1555.13 0.264711 3.45688 0
M  V30 16498 C 1554.19 1.33586 4.07987 0
M  V30 16499 C 1553.42 0.8209 5.27349 0
M  V30 16500 O 1553.65 -0.345303 5.69354 0
M  V30 16501 O 1552.58 1.59052 5.80505 0
M  V30 16502 H 1556.41 1.7234 2.50065 0
M  V30 16503 H 1553.99 0.901084 1.19167 0
M  V30 16504 H 1555.87 -0.0319164 4.21388 0
M  V30 16505 H 1554.55 -0.625869 3.17592 0
M  V30 16506 H 1553.45 1.68566 3.33971 0
M  V30 16507 H 1554.79 2.20021 4.40286 0
M  V30 16508 N 1556.44 -1.28223 0.91633 0
M  V30 16509 C 1557.67 -1.98697 0.56595 0
M  V30 16510 C 1558.08 -1.6864 -0.857734 0
M  V30 16511 O 1557.42 -0.937018 -1.58005 0
M  V30 16512 C 1557.48 -3.52653 0.698292 0
M  V30 16513 C 1557.15 -4.06306 2.092 0
M  V30 16514 C 1558.14 -4.19946 3.06499 0
M  V30 16515 C 1555.83 -4.40934 2.40587 0
M  V30 16516 C 1557.82 -4.67471 4.33301 0
M  V30 16517 C 1555.51 -4.88153 3.67628 0
M  V30 16518 C 1556.51 -5.01378 4.63798 0
M  V30 16519 O 1556.2 -5.47566 5.8858 0
M  V30 16520 H 1555.93 -0.641153 0.214239 0
M  V30 16521 H 1558.48 -1.64322 1.23237 0
M  V30 16522 H 1556.71 -3.86692 -0.0252036 0
M  V30 16523 H 1558.4 -4.04348 0.354638 0
M  V30 16524 H 1559.17 -3.93464 2.83569 0
M  V30 16525 H 1555.05 -4.29889 1.66482 0
M  V30 16526 H 1558.59 -4.77709 5.0837 0
M  V30 16527 H 1554.49 -5.14074 3.90382 0
M  V30 16528 H 1555.25 -5.65845 5.91406 0
M  V30 16529 N 1557.92 -0.68059 -1.42147 0
M  V30 16530 C 1559.15 -0.213529 -2.05494 0
M  V30 16531 C 1559.56 1.13665 -1.51251 0
M  V30 16532 O 1558.9 1.71838 -0.649422 0
M  V30 16533 C 1558.96 -0.0774256 -3.59417 0
M  V30 16534 C 1558.62 -1.35724 -4.3638 0
M  V30 16535 C 1559.62 -2.29195 -4.66654 0
M  V30 16536 C 1557.31 -1.60645 -4.75918 0
M  V30 16537 C 1559.3 -3.45858 -5.35407 0
M  V30 16538 C 1556.99 -2.77597 -5.44411 0
M  V30 16539 C 1557.99 -3.70027 -5.74081 0
M  V30 16540 O 1557.67 -4.84933 -6.41167 0
M  V30 16541 H 1557.41 -0.100043 -0.668556 0
M  V30 16542 H 1559.96 -0.929384 -1.83171 0
M  V30 16543 H 1558.19 0.694062 -3.8042 0
M  V30 16544 H 1559.88 0.350509 -4.04384 0
M  V30 16545 H 1560.64 -2.11194 -4.36603 0
M  V30 16546 H 1556.52 -0.8957 -4.52215 0
M  V30 16547 H 1560.07 -4.18023 -5.58483 0
M  V30 16548 H 1555.96 -2.95521 -5.73879 0
M  V30 16549 H 1556.73 -4.84552 -6.5966 0
M  V30 16550 N 1559.4 1.51781 -0.424309 0
M  V30 16551 C 1560.81 1.59419 -0.0759329 0
M  V30 16552 C 1561.01 1.43616 1.41339 0
M  V30 16553 O 1560.07 1.27078 2.18191 0
M  V30 16554 C 1561.38 2.94966 -0.584411 0
M  V30 16555 C 1562.93 3.08241 -0.54371 0
M  V30 16556 C 1563.4 4.46292 -1.02895 0
M  V30 16557 N 1564.89 4.52575 -0.986392 0
M  V30 16558 C 1565.63 5.57694 -1.33286 0
M  V30 16559 N 1565.13 6.70293 -1.75154 0
M  V30 16560 N 1566.92 5.47983 -1.25186 0
M  V30 16561 H 1559.07 1.60299 -1.39349 0
M  V30 16562 H 1561.33 0.75492 -0.573411 0
M  V30 16563 H 1561.04 3.11859 -1.62593 0
M  V30 16564 H 1560.91 3.772 -0.00224435 0
M  V30 16565 H 1563.3 2.91024 0.488798 0
M  V30 16566 H 1563.38 2.27878 -1.16212 0
M  V30 16567 H 1563.02 4.64255 -2.05986 0
M  V30 16568 H 1562.95 5.25175 -0.387202 0
M  V30 16569 H 1565.45 3.71754 -0.678765 0
M  V30 16570 H 1565.76 7.46508 -1.99863 0
M  V30 16571 H 1564.1 6.71535 -1.79071 0
M  V30 16572 H 1567.29 4.58899 -0.923525 0
M  V30 16573 H 1567.47 6.29796 -1.52517 0
M  V30 16574 N 1560.87 0.155222 1.56834 0
M  V30 16575 C 1562.12 -0.494557 1.96677 0
M  V30 16576 C 1562.45 -1.63973 1.04051 0
M  V30 16577 O 1561.73 -1.94316 0.0844791 0
M  V30 16578 C 1562.01 -0.992902 3.46141 0
M  V30 16579 C 1561.86 0.151335 4.49545 0
M  V30 16580 C 1563.18 -1.87197 3.98303 0
M  V30 16581 H 1560.3 -0.178298 0.715107 0
M  V30 16582 H 1562.94 0.23811 1.88502 0
M  V30 16583 H 1561.09 -1.61724 3.53239 0
M  V30 16584 H 1562.77 0.787945 4.54521 0
M  V30 16585 H 1561.01 0.809262 4.26185 0
M  V30 16586 H 1561.68 -0.23921 5.51481 0
M  V30 16587 H 1564.16 -1.34578 3.93736 0
M  V30 16588 H 1563.03 -2.18972 5.03331 0
M  V30 16589 H 1563.29 -2.81191 3.41151 0
M  V30 16590 N 1562.35 -1.57153 -0.118549 0
M  V30 16591 C 1563.77 -1.52458 -0.472096 0
M  V30 16592 C 1563.97 -0.868289 -1.81832 0
M  V30 16593 O 1563.02 -0.450817 -2.48443 0
M  V30 16594 C 1564.34 -2.9722 -0.456175 0
M  V30 16595 C 1565.88 -3.08312 -0.539694 0
M  V30 16596 C 1566.36 -4.54635 -0.554158 0
M  V30 16597 N 1567.85 -4.59091 -0.615584 0
M  V30 16598 C 1568.59 -5.69724 -0.64823 0
M  V30 16599 N 1568.08 -6.89852 -0.638494 0
M  V30 16600 N 1569.87 -5.57833 -0.691272 0
M  V30 16601 H 1562.03 -1.98202 0.76353 0
M  V30 16602 H 1564.29 -0.905179 0.281699 0
M  V30 16603 H 1563.99 -3.48608 0.465364 0
M  V30 16604 H 1563.87 -3.5468 -1.28381 0
M  V30 16605 H 1566.26 -2.56926 -1.45165 0
M  V30 16606 H 1566.34 -2.53845 0.315638 0
M  V30 16607 H 1565.98 -5.06667 0.353759 0
M  V30 16608 H 1565.91 -5.06914 -1.42638 0
M  V30 16609 H 1568.4 -3.72624 -0.629253 0
M  V30 16610 H 1568.71 -7.69925 -0.66604 0
M  V30 16611 H 1567.06 -6.92354 -0.605912 0
M  V30 16612 H 1570.25 -4.62893 -0.696244 0
M  V30 16613 H 1570.42 -6.44063 -0.713246 0
M  V30 16614 N 1563.83 0.388742 -1.5273 0
M  V30 16615 C 1564.74 1.49916 -1.8045 0
M  V30 16616 C 1565.76 1.59679 -0.691282 0
M  V30 16617 O 1566.93 1.7601 -0.978898 0
M  V30 16618 C 1564 2.85445 -1.96779 0
M  V30 16619 C 1563.06 2.85402 -3.20693 0
M  V30 16620 C 1562.29 4.14466 -3.36234 0
M  V30 16621 O 1562.51 5.09436 -2.56576 0
M  V30 16622 O 1561.45 4.2169 -4.29489 0
M  V30 16623 H 1565.27 1.29423 -2.74743 0
M  V30 16624 H 1562.86 0.576607 -1.37825 0
M  V30 16625 H 1564.74 3.65791 -2.09224 0
M  V30 16626 H 1563.42 3.05964 -1.05676 0
M  V30 16627 H 1562.32 2.03836 -3.1369 0
M  V30 16628 H 1563.66 2.69835 -4.11643 0
M  V30 16629 N 1565.31 1.43698 0.647203 0
M  V30 16630 C 1566.58 1.3611 1.40476 0
M  V30 16631 C 1566.96 0.0118567 2.11097 0
M  V30 16632 O 1566.31 -1.00496 2.05214 0
M  V30 16633 C 1566.52 2.5484 2.38448 0
M  V30 16634 C 1567.87 2.98195 3.02267 0
M  V30 16635 O 1568.89 2.5493 2.48775 0
M  V30 16636 O 1567.75 3.73162 3.99265 0
M  V30 16637 H 1564.85 0.538198 0.62791 0
M  V30 16638 H 1567.39 1.55758 0.673606 0
M  V30 16639 H 1566.17 3.4467 1.85253 0
M  V30 16640 H 1565.79 2.37323 3.19004 0
M  V30 16641 N 1566.79 -0.886131 1.30328 0
M  V30 16642 C 1568.03 -1.6346 1.18849 0
M  V30 16643 C 1568.36 -1.93295 -0.257285 0
M  V30 16644 O 1567.63 -1.56858 -1.17356 0
M  V30 16645 H 1566.21 -0.605932 0.43687 0
M  V30 16646 H 1568.87 -1.06177 1.63439 0
M  V30 16647 H 1567.96 -2.58522 1.7485 0
M  V30 16648 N 1568.26 -1.13026 -1.09832 0
M  V30 16649 C 1569.54 -0.800667 -1.78462 0
M  V30 16650 C 1569.92 0.708508 -1.98855 0
M  V30 16651 O 1569.27 1.64436 -1.58661 0
M  V30 16652 C 1569.48 -1.58284 -3.11042 0
M  V30 16653 C 1570.83 -1.77285 -3.85818 0
M  V30 16654 O 1571.85 -1.54848 -3.20781 0
M  V30 16655 O 1570.71 -2.14693 -5.02563 0
M  V30 16656 H 1567.8 -0.291895 -0.773774 0
M  V30 16657 H 1570.35 -1.23464 -1.16425 0
M  V30 16658 H 1569.12 -2.60867 -2.91657 0
M  V30 16659 H 1568.75 -1.14353 -3.80801 0
M  V30 16660 N 1569.74 1.27735 -0.923117 0
M  V30 16661 C 1570.97 1.9922 -0.57672 0
M  V30 16662 C 1571.39 1.68446 0.837113 0
M  V30 16663 O 1570.75 0.922129 1.56098 0
M  V30 16664 C 1570.8 3.51528 -0.803768 0
M  V30 16665 O 1569.9 4.12186 0.132829 0
M  V30 16666 H 1569.24 0.625593 -0.222553 0
M  V30 16667 H 1571.77 1.62657 -1.24112 0
M  V30 16668 H 1571.78 4.01641 -0.717534 0
M  V30 16669 H 1570.46 3.7326 -1.83439 0
M  V30 16670 H 1569.04 3.729 -0.00292957 0
M  V30 16671 N 1571.22 0.688118 1.41784 0
M  V30 16672 C 1572.63 0.291625 1.84408 0
M  V30 16673 C 1572.98 -1.1688 1.57587 0
M  V30 16674 O 1572.11 -1.89634 1.04248 0
M  V30 16675 C 1572.7 0.522511 3.34747 0
M  V30 16676 C 1571.26 0.180008 3.75969 0
M  V30 16677 C 1570.41 0.808455 2.65253 0
M  V30 16678 H 1573.36 0.88932 1.31441 0
M  V30 16679 H 1573.38 -0.221167 3.79857 0
M  V30 16680 H 1572.89 1.5855 3.54236 0
M  V30 16681 H 1570.99 -0.879012 3.62083 0
M  V30 16682 H 1571.11 0.629826 4.74942 0
M  V30 16683 H 1569.47 0.238665 2.53579 0
M  V30 16684 H 1570.25 1.87516 2.87563 0
M  V30 16685 N 1572.7 -1.51554 0.432352 0
M  V30 16686 C 1573.94 -2.02344 -0.13598 0
M  V30 16687 C 1574.28 -1.31619 -1.42794 0
M  V30 16688 O 1573.55 -0.42957 -1.89697 0
M  V30 16689 C 1573.84 -3.58297 -0.359865 0
M  V30 16690 C 1573.69 -4.39645 0.950399 0
M  V30 16691 C 1575.01 -4.25297 -1.13184 0
M  V30 16692 H 1572.13 -0.735439 -0.0479461 0
M  V30 16693 H 1574.77 -1.81237 0.570373 0
M  V30 16694 H 1572.92 -3.76413 -0.961547 0
M  V30 16695 H 1574.59 -4.3319 1.58568 0
M  V30 16696 H 1572.83 -4.04928 1.55614 0
M  V30 16697 H 1573.5 -5.46911 0.747852 0
M  V30 16698 H 1575.98 -4.11421 -0.622231 0
M  V30 16699 H 1574.86 -5.34307 -1.25726 0
M  V30 16700 H 1575.12 -3.85818 -2.15862 0
M  V30 16701 N 1574.18 -0.163538 -1.56749 0
M  V30 16702 C 1575.42 0.483404 -1.96646 0
M  V30 16703 C 1575.75 1.63776 -1.04918 0
M  V30 16704 O 1575.01 1.95529 -0.0816828 0
M  V30 16705 C 1575.31 1.0153 -3.42675 0
M  V30 16706 C 1574.97 -0.0223402 -4.50894 0
M  V30 16707 C 1573.63 -0.30754 -4.80216 0
M  V30 16708 C 1575.99 -0.727064 -5.16104 0
M  V30 16709 C 1573.31 -1.30299 -5.72048 0
M  V30 16710 C 1575.67 -1.71144 -6.09009 0
M  V30 16711 C 1574.33 -2.00417 -6.36702 0
M  V30 16712 H 1573.6 0.17689 -0.719577 0
M  V30 16713 H 1576.25 -0.253859 -1.8981 0
M  V30 16714 H 1574.55 1.83023 -3.46425 0
M  V30 16715 H 1576.25 1.52472 -3.70882 0
M  V30 16716 H 1572.84 0.210124 -4.28085 0
M  V30 16717 H 1577.02 -0.519934 -4.93569 0
M  V30 16718 H 1572.28 -1.53604 -5.9179 0
M  V30 16719 H 1576.45 -2.26292 -6.58608 0
M  V30 16720 H 1574.08 -2.77701 -7.07663 0
M  V30 16721 N 1575.65 1.57214 0.110213 0
M  V30 16722 C 1576.9 1.86462 0.812616 0
M  V30 16723 C 1577.26 0.752442 1.77076 0
M  V30 16724 O 1576.55 -0.246845 1.90003 0
M  V30 16725 C 1576.74 3.19933 1.59304 0
M  V30 16726 C 1576.57 4.44028 0.711966 0
M  V30 16727 C 1575.34 5.03991 0.363447 0
M  V30 16728 C 1577.54 5.14294 0.0256587 0
M  V30 16729 N 1575.52 6.11631 -0.52737 0
M  V30 16730 C 1576.89 6.1576 -0.723813 0
M  V30 16731 C 1578.95 4.97875 -0.0498436 0
M  V30 16732 C 1577.65 7.02584 -1.54171 0
M  V30 16733 C 1579.68 5.85193 -0.854592 0
M  V30 16734 C 1579.04 6.86169 -1.59223 0
M  V30 16735 H 1575.14 0.732424 0.274006 0
M  V30 16736 H 1577.72 1.94552 0.0758925 0
M  V30 16737 H 1575.89 3.12923 2.30074 0
M  V30 16738 H 1577.62 3.36958 2.24146 0
M  V30 16739 H 1574.38 4.68283 0.707688 0
M  V30 16740 H 1574.8 6.70089 -0.964887 0
M  V30 16741 H 1579.45 4.1976 0.506097 0
M  V30 16742 H 1577.16 7.801 -2.10877 0
M  V30 16743 H 1580.75 5.74552 -0.915487 0
M  V30 16744 H 1579.63 7.52564 -2.20492 0
M  V30 16745 N 1577.13 -0.380637 1.52934 0
M  V30 16746 C 1578.36 -1.14417 1.72024 0
M  V30 16747 C 1578.77 -1.83962 0.442128 0
M  V30 16748 O 1578.11 -1.73839 -0.593766 0
M  V30 16749 C 1578.18 -2.22944 2.82022 0
M  V30 16750 C 1577.84 -1.73295 4.22869 0
M  V30 16751 C 1578.84 -1.20515 5.05739 0
M  V30 16752 C 1576.52 -1.79264 4.69222 0
M  V30 16753 C 1578.52 -0.743632 6.33047 0
M  V30 16754 C 1576.2 -1.32724 5.96513 0
M  V30 16755 C 1577.2 -0.803615 6.78256 0
M  V30 16756 O 1576.89 -0.34503 8.03159 0
M  V30 16757 H 1576.62 -0.348676 0.579138 0
M  V30 16758 H 1579.17 -0.450113 2.00407 0
M  V30 16759 H 1577.4 -2.95798 2.49079 0
M  V30 16760 H 1579.09 -2.84575 2.89434 0
M  V30 16761 H 1579.86 -1.15254 4.71107 0
M  V30 16762 H 1575.74 -2.18962 4.0568 0
M  V30 16763 H 1579.28 -0.334251 6.96799 0
M  V30 16764 H 1575.18 -1.37673 6.30648 0
M  V30 16765 H 1575.95 -0.465743 8.17174 0
M  V30 16766 N 1578.61 -1.44039 -0.639573 0
M  V30 16767 C 1579.57 -1.49907 -1.7338 0
M  V30 16768 C 1580.57 -0.382101 -1.56194 0
M  V30 16769 O 1581.76 -0.644396 -1.61843 0
M  V30 16770 C 1578.9 -1.36486 -3.12385 0
M  V30 16771 H 1580.09 -2.4737 -1.69553 0
M  V30 16772 H 1577.64 -1.31006 -0.852474 0
M  V30 16773 H 1578.38 -0.400845 -3.21813 0
M  V30 16774 H 1578.16 -2.17471 -3.26265 0
M  V30 16775 H 1579.65 -1.43555 -3.9215 0
M  V30 16776 N 1580.09 0.879207 -1.30796 0
M  V30 16777 C 1581.5 1.44705 -1.17972 0
M  V30 16778 C 1581.85 1.94992 0.217381 0
M  V30 16779 O 1580.98 1.85494 1.11449 0
M  V30 16780 C 1581.57 2.6302 -2.13555 0
M  V30 16781 C 1580.13 3.15877 -2.04692 0
M  V30 16782 C 1579.28 1.88576 -2.03309 0
M  V30 16783 H 1582.23 0.688604 -1.42982 0
M  V30 16784 H 1582.25 3.39418 -1.71976 0
M  V30 16785 H 1581.76 2.2639 -3.15229 0
M  V30 16786 H 1579.86 3.57151 -1.0618 0
M  V30 16787 H 1579.97 3.78786 -2.93357 0
M  V30 16788 H 1578.34 2.0715 -1.48192 0
M  V30 16789 H 1579.12 1.54195 -3.06723 0
M  V30 16790 N 1581.57 1.13606 1.09231 0
M  V30 16791 C 1582.48 0.828702 2.19476 0
M  V30 16792 C 1583.49 -0.187499 1.72987 0
M  V30 16793 O 1584.67 -0.0180602 2.01392 0
M  V30 16794 C 1581.73 0.301361 3.45388 0
M  V30 16795 C 1580.8 1.37906 4.06547 0
M  V30 16796 C 1580.03 0.876786 5.26449 0
M  V30 16797 O 1580.25 -0.284896 5.69688 0
M  V30 16798 O 1579.19 1.652 5.78785 0
M  V30 16799 H 1583.01 1.74982 2.48223 0
M  V30 16800 H 1580.6 0.913673 1.18205 0
M  V30 16801 H 1582.48 0.0127792 4.21398 0
M  V30 16802 H 1581.15 -0.592149 3.18238 0
M  V30 16803 H 1580.06 1.72098 3.32164 0
M  V30 16804 H 1581.39 2.24678 4.37927 0
M  V30 16805 N 1583.05 -1.27244 0.929878 0
M  V30 16806 C 1584.29 -1.96034 0.578782 0
M  V30 16807 C 1584.65 -1.71449 -0.86425 0
M  V30 16808 O 1585.85 -2.33946 -1.32373 0
M  V30 16809 C 1584.12 -3.45925 0.898374 0
M  V30 16810 S 1585.68 -4.33867 0.65612 0
M  V30 16811 H 1582.5 -0.678166 0.213569 0
M  V30 16812 H 1585.1 -1.54433 1.19878 0
M  V30 16813 H 1583.8 -3.61317 1.94624 0
M  V30 16814 H 1583.34 -3.92488 0.267655 0
M  V30 16815 H 1585.35 -4.93823 -0.485059 0
M  V30 16816 N 1584.52 -0.695628 -1.41417 0
M  V30 16817 C 1585.45 -0.0447013 -2.33457 0
M  V30 16818 C 1586.43 0.767104 -1.51821 0
M  V30 16819 O 1587.62 0.720066 -1.80357 0
M  V30 16820 C 1584.75 0.892353 -3.3564 0
M  V30 16821 C 1583.7 0.187638 -4.27588 0
M  V30 16822 C 1583.03 1.23906 -5.20146 0
M  V30 16823 C 1584.33 -0.946093 -5.1366 0
M  V30 16824 H 1586.02 -0.81343 -2.88138 0
M  V30 16825 H 1583.57 -0.392614 -1.38544 0
M  V30 16826 H 1585.52 1.35696 -3.98954 0
M  V30 16827 H 1584.25 1.69275 -2.79309 0
M  V30 16828 H 1582.91 -0.256942 -3.65698 0
M  V30 16829 H 1582.55 2.03198 -4.6013 0
M  V30 16830 H 1582.25 0.772536 -5.82499 0
M  V30 16831 H 1583.78 1.70417 -5.86336 0
M  V30 16832 H 1585.19 -0.561764 -5.70541 0
M  V30 16833 H 1583.59 -1.33971 -5.84954 0
M  V30 16834 H 1584.66 -1.78573 -4.50821 0
M  V30 16835 N 1586 1.51322 -0.440383 0
M  V30 16836 C 1586.95 2.27823 0.369526 0
M  V30 16837 C 1587.92 1.31543 1.01418 0
M  V30 16838 O 1589.1 1.60449 1.03251 0
M  V30 16839 C 1586.24 3.12553 1.46304 0
M  V30 16840 C 1585.36 4.23829 0.836217 0
M  V30 16841 C 1584.49 4.95865 1.90504 0
M  V30 16842 C 1583.53 5.99058 1.25681 0
M  V30 16843 N 1582.67 6.64489 2.26712 0
M  V30 16844 H 1587.51 2.96593 -0.289205 0
M  V30 16845 H 1585.04 1.46287 -0.154466 0
M  V30 16846 H 1587 3.60006 2.10836 0
M  V30 16847 H 1585.63 2.4589 2.09136 0
M  V30 16848 H 1584.68 3.80318 0.0791116 0
M  V30 16849 H 1586 4.97753 0.322989 0
M  V30 16850 H 1585.15 5.46881 2.6269 0
M  V30 16851 H 1583.89 4.21578 2.452 0
M  V30 16852 H 1582.89 5.47331 0.520422 0
M  V30 16853 H 1584.12 6.75303 0.717138 0
M  V30 16854 H 1582.07 5.93014 2.80483 0
M  V30 16855 H 1581.98 7.34188 1.80289 0
M  V30 16856 H 1583.25 7.20134 2.98373 0
M  V30 16857 N 1587.48 0.171848 1.5666 0
M  V30 16858 C 1588.39 -0.770721 2.21579 0
M  V30 16859 C 1589.41 -1.25273 1.20759 0
M  V30 16860 O 1590.58 -1.30474 1.53422 0
M  V30 16861 C 1587.65 -1.98256 2.84422 0
M  V30 16862 C 1586.71 -1.54738 4.00443 0
M  V30 16863 C 1585.94 -2.70145 4.6028 0
M  V30 16864 O 1586.16 -3.87026 4.19007 0
M  V30 16865 O 1585.1 -2.44189 5.50141 0
M  V30 16866 H 1588.92 -0.247974 3.02686 0
M  V30 16867 H 1586.51 -0.0563734 1.49294 0
M  V30 16868 H 1588.39 -2.69127 3.24266 0
M  V30 16869 H 1587.07 -2.49435 2.0631 0
M  V30 16870 H 1585.97 -0.808152 3.65267 0
M  V30 16871 H 1587.31 -1.08249 4.80149 0
M  V30 16872 N 1588.96 -1.5727 -0.101874 0
M  V30 16873 C 1590.19 -1.89667 -0.81914 0
M  V30 16874 C 1590.6 -0.763027 -1.73132 0
M  V30 16875 O 1589.94 0.274317 -1.8164 0
M  V30 16876 C 1590 -3.17252 -1.6909 0
M  V30 16877 C 1589.66 -4.4699 -0.951257 0
M  V30 16878 C 1590.66 -5.19123 -0.28417 0
M  V30 16879 C 1588.35 -4.93665 -0.927349 0
M  V30 16880 C 1590.34 -6.36163 0.396934 0
M  V30 16881 C 1588.03 -6.10619 -0.242456 0
M  V30 16882 C 1589.03 -6.81717 0.418514 0
M  V30 16883 O 1588.71 -7.96443 1.09244 0
M  V30 16884 H 1588.45 -0.632024 -0.239836 0
M  V30 16885 H 1591 -2.05222 -0.0855979 0
M  V30 16886 H 1589.23 -2.97825 -2.46651 0
M  V30 16887 H 1590.92 -3.35533 -2.28413 0
M  V30 16888 H 1591.68 -4.84107 -0.294146 0
M  V30 16889 H 1587.56 -4.38219 -1.43126 0
M  V30 16890 H 1591.11 -6.91594 0.913417 0
M  V30 16891 H 1587 -6.45089 -0.230303 0
M  V30 16892 H 1587.77 -8.12385 0.998647 0
M  V30 16893 N 1590.44 0.372521 -1.53134 0
M  V30 16894 C 1591.38 1.45597 -1.79082 0
M  V30 16895 C 1592.35 1.5349 -0.63482 0
M  V30 16896 O 1593.54 1.69488 -0.876276 0
M  V30 16897 C 1590.68 2.8263 -1.98026 0
M  V30 16898 C 1589.79 2.83758 -3.25738 0
M  V30 16899 C 1588.93 4.12322 -3.34909 0
M  V30 16900 C 1587.96 4.07565 -4.5668 0
M  V30 16901 N 1587.1 5.27766 -4.63042 0
M  V30 16902 H 1591.94 1.22771 -2.71535 0
M  V30 16903 H 1589.48 0.595285 -1.34517 0
M  V30 16904 H 1591.44 3.62227 -2.06997 0
M  V30 16905 H 1590.07 3.0387 -1.08917 0
M  V30 16906 H 1589.12 1.96435 -3.25757 0
M  V30 16907 H 1590.43 2.76114 -4.15406 0
M  V30 16908 H 1589.58 5.00331 -3.43153 0
M  V30 16909 H 1588.32 4.22709 -2.43245 0
M  V30 16910 H 1587.33 3.17943 -4.48545 0
M  V30 16911 H 1588.55 3.98786 -5.49678 0
M  V30 16912 H 1586.5 5.38752 -3.74276 0
M  V30 16913 H 1586.42 5.22264 -5.46605 0
M  V30 16914 H 1587.68 6.17626 -4.75561 0
M  V30 16915 N 1591.91 1.44376 0.631925 0
M  V30 16916 C 1593.16 1.47117 1.3915 0
M  V30 16917 C 1593.49 0.10347 1.94225 0
M  V30 16918 O 1592.74 -0.894623 1.74055 0
M  V30 16919 C 1593.04 2.47828 2.57519 0
M  V30 16920 C 1592.71 3.93174 2.20738 0
M  V30 16921 C 1591.37 4.32755 2.1042 0
M  V30 16922 C 1593.72 4.8468 1.91664 0
M  V30 16923 C 1591.05 5.61768 1.69214 0
M  V30 16924 C 1593.4 6.14079 1.51951 0
M  V30 16925 C 1592.07 6.52616 1.40174 0
M  V30 16926 H 1591.34 0.538341 0.509186 0
M  V30 16927 H 1593.98 1.77584 0.716663 0
M  V30 16928 H 1592.29 2.10841 3.30232 0
M  V30 16929 H 1593.99 2.47196 3.15746 0
M  V30 16930 H 1590.58 3.61859 2.29687 0
M  V30 16931 H 1594.76 4.54855 1.98546 0
M  V30 16932 H 1590.02 5.90444 1.58699 0
M  V30 16933 H 1594.19 6.84443 1.28493 0
M  V30 16934 H 1591.82 7.52487 1.08017 0
M  V30 16935 N 1593.39 -0.872258 1.31261 0
M  V30 16936 C 1594.62 -1.65555 1.23593 0
M  V30 16937 C 1595.03 -1.88124 -0.201532 0
M  V30 16938 O 1594.37 -1.43792 -1.14323 0
M  V30 16939 C 1594.43 -3.04726 1.90742 0
M  V30 16940 C 1594.1 -3.05276 3.40082 0
M  V30 16941 C 1595.1 -2.83401 4.35867 0
M  V30 16942 C 1592.78 -3.26469 3.81737 0
M  V30 16943 C 1594.77 -2.82697 5.71281 0
M  V30 16944 C 1592.46 -3.25393 5.17265 0
M  V30 16945 C 1593.46 -3.03533 6.11847 0
M  V30 16946 O 1593.15 -3.02297 7.44897 0
M  V30 16947 H 1592.88 -0.52296 0.428356 0
M  V30 16948 H 1595.43 -1.09717 1.73641 0
M  V30 16949 H 1593.66 -3.62281 1.35239 0
M  V30 16950 H 1595.35 -3.65265 1.7702 0
M  V30 16951 H 1596.12 -2.66812 4.05014 0
M  V30 16952 H 1592 -3.42515 3.08552 0
M  V30 16953 H 1595.54 -2.65553 6.45079 0
M  V30 16954 H 1591.44 -3.41522 5.47753 0
M  V30 16955 H 1592.21 -3.18375 7.54042 0
M  V30 16956 N 1594.87 -1.14184 -1.08627 0
M  V30 16957 C 1596.1 -0.930752 -1.84447 0
M  V30 16958 C 1596.51 0.524072 -1.81797 0
M  V30 16959 O 1595.85 1.37483 -1.21836 0
M  V30 16960 C 1595.91 -1.35125 -3.33139 0
M  V30 16961 C 1595.58 -2.82117 -3.59526 0
M  V30 16962 C 1596.57 -3.80242 -3.54559 0
M  V30 16963 C 1594.26 -3.19475 -3.87609 0
M  V30 16964 C 1596.25 -5.13734 -3.77301 0
M  V30 16965 C 1593.94 -4.53144 -4.10005 0
M  V30 16966 C 1594.94 -5.50082 -4.04844 0
M  V30 16967 O 1594.63 -6.81339 -4.26653 0
M  V30 16968 H 1594.36 -0.331385 -0.589203 0
M  V30 16969 H 1596.91 -1.52033 -1.38113 0
M  V30 16970 H 1595.14 -0.704995 -3.80219 0
M  V30 16971 H 1596.83 -1.11133 -3.9039 0
M  V30 16972 H 1597.6 -3.52726 -3.32881 0
M  V30 16973 H 1593.48 -2.44617 -3.90747 0
M  V30 16974 H 1597.02 -5.89386 -3.73188 0
M  V30 16975 H 1592.92 -4.80381 -4.31166 0
M  V30 16976 H 1593.68 -6.87563 -4.44071 0
M  V30 16977 N 1596.35 1.26749 -0.936613 0
M  V30 16978 C 1597.31 2.24794 -0.447243 0
M  V30 16979 C 1598.31 1.54688 0.439135 0
M  V30 16980 O 1599.5 1.72553 0.238957 0
M  V30 16981 C 1596.63 3.39036 0.355958 0
M  V30 16982 H 1597.83 2.696 -1.31361 0
M  V30 16983 H 1595.38 1.38825 -0.718143 0
M  V30 16984 H 1596.11 2.99625 1.24077 0
M  V30 16985 H 1595.9 3.91101 -0.279691 0
M  V30 16986 H 1597.39 4.11887 0.688421 0
M  V30 16987 N 1597.83 0.703118 1.41046 0
M  V30 16988 C 1599.05 0.245088 2.05947 0
M  V30 16989 C 1599.48 -1.09988 1.52592 0
M  V30 16990 O 1598.83 -1.69015 0.656023 0
M  V30 16991 C 1598.88 0.221444 3.59919 0
M  V30 16992 O 1597.99 -0.801324 4.0454 0
M  V30 16993 H 1597.33 0.117862 0.653456 0
M  V30 16994 H 1599.86 0.960099 1.80674 0
M  V30 16995 H 1599.87 0.0548681 4.07963 0
M  V30 16996 H 1598.54 1.20301 3.98121 0
M  V30 16997 H 1597.12 -0.603489 3.67984 0
M  V30 16998 N 1599.3 -1.51086 0.448402 0
M  V30 16999 C 1600.58 -1.94817 -0.174819 0
M  V30 17000 C 1600.96 -1.38767 -1.59081 0
M  V30 17001 O 1600.31 -0.579257 -2.21036 0
M  V30 17002 C 1600.52 -3.48714 -0.14129 0
M  V30 17003 C 1601.87 -4.23225 -0.341414 0
M  V30 17004 O 1602.89 -3.55527 -0.218908 0
M  V30 17005 O 1601.75 -5.43346 -0.586331 0
M  V30 17006 H 1598.84 -0.817652 -0.12399 0
M  V30 17007 H 1601.39 -1.61944 0.507177 0
M  V30 17008 H 1600.16 -3.81996 0.848222 0
M  V30 17009 H 1599.79 -3.88061 -0.865722 0
M  V30 17010 N 1600.78 -0.180154 -1.56567 0
M  V30 17011 C 1602.03 0.463205 -1.97439 0
M  V30 17012 C 1602.36 1.62296 -1.06647 0
M  V30 17013 O 1601.64 1.94157 -0.115382 0
M  V30 17014 C 1601.92 0.937709 -3.47677 0
M  V30 17015 C 1601.77 -0.222835 -4.49248 0
M  V30 17016 C 1603.09 1.80836 -4.01231 0
M  V30 17017 H 1600.21 0.166899 -0.717854 0
M  V30 17018 H 1602.85 -0.268069 -1.88099 0
M  V30 17019 H 1601 1.56084 -3.55767 0
M  V30 17020 H 1602.67 -0.860155 -4.5321 0
M  V30 17021 H 1600.92 -0.876962 -4.24843 0
M  V30 17022 H 1601.59 0.151444 -5.51792 0
M  V30 17023 H 1604.06 1.28297 -3.95827 0
M  V30 17024 H 1602.94 2.10937 -5.06751 0
M  V30 17025 H 1603.2 2.75728 -3.45581 0
M  V30 17026 N 1602.26 1.57322 0.0935319 0
M  V30 17027 C 1603.51 1.87313 0.792794 0
M  V30 17028 C 1603.86 0.771181 1.76268 0
M  V30 17029 O 1603.15 -0.226679 1.90254 0
M  V30 17030 C 1603.35 3.21605 1.55901 0
M  V30 17031 C 1603.18 4.44758 0.66483 0
M  V30 17032 C 1601.95 5.04348 0.309971 0
M  V30 17033 C 1604.15 5.14292 -0.0288905 0
M  V30 17034 N 1602.13 6.11037 -0.592212 0
M  V30 17035 C 1603.5 6.14958 -0.789082 0
M  V30 17036 C 1605.55 4.97794 -0.102647 0
M  V30 17037 C 1604.26 7.00909 -1.61614 0
M  V30 17038 C 1606.28 5.84254 -0.916612 0
M  V30 17039 C 1605.64 6.84441 -1.66492 0
M  V30 17040 H 1601.74 0.735289 0.266222 0
M  V30 17041 H 1604.33 1.94622 0.0552534 0
M  V30 17042 H 1602.5 3.15345 2.26742 0
M  V30 17043 H 1604.23 3.39317 2.20559 0
M  V30 17044 H 1600.99 4.69007 0.65798 0
M  V30 17045 H 1601.41 6.69028 -1.0359 0
M  V30 17046 H 1606.05 4.20273 0.461548 0
M  V30 17047 H 1603.77 7.7782 -2.1914 0
M  V30 17048 H 1607.36 5.73549 -0.976374 0
M  V30 17049 H 1606.24 7.50183 -2.28461 0
M  V30 17050 N 1603.74 -0.364395 1.53329 0
M  V30 17051 C 1604.96 -1.13196 1.73786 0
M  V30 17052 C 1605.39 -1.82231 0.466224 0
M  V30 17053 O 1604.75 -1.71778 -0.579817 0
M  V30 17054 C 1604.79 -2.13704 2.90453 0
M  V30 17055 O 1603.9 -3.20808 2.59144 0
M  V30 17056 H 1603.24 -0.328387 0.577112 0
M  V30 17057 H 1605.77 -0.421157 2.00218 0
M  V30 17058 H 1605.78 -2.57285 3.16652 0
M  V30 17059 H 1604.45 -1.6285 3.82691 0
M  V30 17060 H 1603.03 -2.82192 2.43767 0
M  V30 17061 N 1605.22 -1.44709 -0.62426 0
M  V30 17062 C 1606.46 -1.47853 -1.38368 0
M  V30 17063 C 1606.79 -0.113769 -1.94167 0
M  V30 17064 O 1606.05 0.88538 -1.74527 0
M  V30 17065 C 1606.35 -2.4919 -2.56201 0
M  V30 17066 C 1606.01 -3.94339 -2.1865 0
M  V30 17067 C 1604.67 -4.33865 -2.08122 0
M  V30 17068 C 1607.03 -4.85689 -1.89091 0
M  V30 17069 C 1604.35 -5.62658 -1.66233 0
M  V30 17070 C 1606.71 -6.14877 -1.48693 0
M  V30 17071 C 1605.37 -6.5335 -1.36711 0
M  V30 17072 H 1604.64 -0.541034 -0.506324 0
M  V30 17073 H 1607.29 -1.77962 -0.707235 0
M  V30 17074 H 1605.59 -2.1259 -3.29109 0
M  V30 17075 H 1607.29 -2.48867 -3.1443 0
M  V30 17076 H 1603.88 -3.63072 -2.27764 0
M  V30 17077 H 1608.06 -4.55902 -1.96131 0
M  V30 17078 H 1603.32 -5.91278 -1.55565 0
M  V30 17079 H 1607.49 -6.85115 -1.24861 0
M  V30 17080 H 1605.12 -7.53049 -1.04025 0
M  V30 17081 N 1606.69 0.865285 -1.31722 0
M  V30 17082 C 1607.94 1.61549 -1.21435 0
M  V30 17083 C 1608.26 1.9368 0.226501 0
M  V30 17084 O 1607.53 1.58705 1.14846 0
M  V30 17085 H 1606.11 0.598905 -0.446454 0
M  V30 17086 H 1608.78 1.03563 -1.65108 0
M  V30 17087 H 1607.87 2.55708 -1.78941 0
M  V30 17088 N 1608.17 1.14759 1.0802 0
M  V30 17089 C 1609.42 0.919609 1.80751 0
M  V30 17090 C 1609.75 -0.552268 1.86182 0
M  V30 17091 O 1609.03 -1.40922 1.34057 0
M  V30 17092 C 1609.31 1.52611 3.26162 0
M  V30 17093 C 1609.16 3.06811 3.28918 0
M  V30 17094 C 1610.48 1.20625 4.23246 0
M  V30 17095 H 1607.6 0.33551 0.656203 0
M  V30 17096 H 1610.24 1.41816 1.26444 0
M  V30 17097 H 1608.39 1.10213 3.72539 0
M  V30 17098 H 1610.06 3.58068 2.90835 0
M  V30 17099 H 1608.31 3.41055 2.68075 0
M  V30 17100 H 1608.98 3.44357 4.31419 0
M  V30 17101 H 1611.45 1.57287 3.85227 0
M  V30 17102 H 1610.33 1.65689 5.23296 0
M  V30 17103 H 1610.59 0.122177 4.41931 0
M  V30 17104 N 1609.65 -1.26251 0.943322 0
M  V30 17105 C 1610.88 -1.97739 0.608852 0
M  V30 17106 C 1611.29 -1.70225 -0.81663 0
M  V30 17107 O 1610.65 -0.97172 -1.54479 0
M  V30 17108 C 1610.7 -3.51505 0.844172 0
M  V30 17109 O 1610.42 -3.78063 2.21359 0
M  V30 17110 C 1611.92 -4.40233 0.52054 0
M  V30 17111 H 1609.14 -0.630619 0.229262 0
M  V30 17112 H 1611.69 -1.6071 1.26461 0
M  V30 17113 H 1609.84 -3.86687 0.23499 0
M  V30 17114 H 1610.26 -4.72582 2.27523 0
M  V30 17115 H 1611.73 -5.47074 0.735802 0
M  V30 17116 H 1612.21 -4.35811 -0.544541 0
M  V30 17117 H 1612.81 -4.10599 1.10854 0
M  V30 17118 N 1611.13 -0.710588 -1.40671 0
M  V30 17119 C 1612.06 -0.0694601 -2.33397 0
M  V30 17120 C 1613.04 0.750959 -1.52626 0
M  V30 17121 O 1614.23 0.700896 -1.81111 0
M  V30 17122 C 1611.36 0.856704 -3.36568 0
M  V30 17123 C 1610.31 0.142276 -4.27763 0
M  V30 17124 C 1609.64 1.18382 -5.21431 0
M  V30 17125 C 1610.94 -1.00052 -5.12627 0
M  V30 17126 H 1612.63 -0.843945 -2.87259 0
M  V30 17127 H 1610.18 -0.407287 -1.3812 0
M  V30 17128 H 1612.13 1.31457 -4.00371 0
M  V30 17129 H 1610.85 1.66303 -2.81089 0
M  V30 17130 H 1609.51 -0.295714 -3.65405 0
M  V30 17131 H 1609.16 1.98306 -4.62259 0
M  V30 17132 H 1608.86 0.71071 -5.83286 0
M  V30 17133 H 1610.38 1.64189 -5.88111 0
M  V30 17134 H 1611.8 -0.622246 -5.69913 0
M  V30 17135 H 1610.19 -1.40168 -5.83501 0
M  V30 17136 H 1611.26 -1.83345 -4.48902 0
M  V30 17137 N 1612.61 1.50847 -0.456408 0
M  V30 17138 C 1613.84 2.0635 0.10159 0
M  V30 17139 C 1614.25 1.32198 1.35353 0
M  V30 17140 O 1613.59 0.380433 1.79718 0
M  V30 17141 C 1613.65 3.56411 0.470283 0
M  V30 17142 C 1613.31 4.51949 -0.677546 0
M  V30 17143 C 1614.31 4.96091 -1.55531 0
M  V30 17144 C 1612 4.94819 -0.863701 0
M  V30 17145 C 1613.99 5.81793 -2.60377 0
M  V30 17146 C 1611.68 5.80306 -1.9154 0
M  V30 17147 C 1612.68 6.23693 -2.78381 0
M  V30 17148 O 1612.36 7.0748 -3.81742 0
M  V30 17149 H 1612.1 0.675994 0.00283373 0
M  V30 17150 H 1614.65 1.95178 -0.639893 0
M  V30 17151 H 1612.88 3.65433 1.26475 0
M  V30 17152 H 1614.57 3.94344 0.961649 0
M  V30 17153 H 1615.33 4.63651 -1.42311 0
M  V30 17154 H 1611.21 4.60578 -0.197285 0
M  V30 17155 H 1614.76 6.15578 -3.2819 0
M  V30 17156 H 1610.65 6.12159 -2.04773 0
M  V30 17157 H 1611.42 7.257 -3.78553 0
M  V30 17158 N 1614.09 0.188454 1.56469 0
M  V30 17159 C 1615 -0.747176 2.22384 0
M  V30 17160 C 1616.01 -1.23985 1.22081 0
M  V30 17161 O 1617.19 -1.2884 1.54797 0
M  V30 17162 C 1614.25 -1.95228 2.86508 0
M  V30 17163 C 1613.31 -1.50482 4.02062 0
M  V30 17164 C 1612.55 -2.65248 4.63119 0
M  V30 17165 O 1612.77 -3.8256 4.23088 0
M  V30 17166 O 1611.7 -2.38341 5.527 0
M  V30 17167 H 1615.53 -0.215857 3.02932 0
M  V30 17168 H 1613.11 -0.0405356 1.49345 0
M  V30 17169 H 1615 -2.65673 3.27103 0
M  V30 17170 H 1613.67 -2.47233 2.08944 0
M  V30 17171 H 1612.58 -0.769365 3.66103 0
M  V30 17172 H 1613.91 -1.03151 4.8127 0
M  V30 17173 N 1615.56 -1.5737 -0.0851874 0
M  V30 17174 C 1616.49 -2.05796 -1.10319 0
M  V30 17175 C 1617.47 -0.948796 -1.4118 0
M  V30 17176 O 1618.66 -1.22069 -1.51039 0
M  V30 17177 C 1615.79 -2.49069 -2.42037 0
M  V30 17178 C 1614.74 -3.6374 -2.25561 0
M  V30 17179 C 1614.07 -3.93023 -3.62543 0
M  V30 17180 C 1615.37 -4.94274 -1.68793 0
M  V30 17181 H 1617.06 -2.91095 -0.700274 0
M  V30 17182 H 1614.61 -1.40039 -0.335405 0
M  V30 17183 H 1616.56 -2.81558 -3.13534 0
M  V30 17184 H 1615.29 -1.60781 -2.84283 0
M  V30 17185 H 1613.95 -3.31513 -1.56507 0
M  V30 17186 H 1613.59 -3.01887 -4.02335 0
M  V30 17187 H 1613.29 -4.70229 -3.52362 0
M  V30 17188 H 1614.82 -4.27995 -4.35491 0
M  V30 17189 H 1616.23 -5.25079 -2.30141 0
M  V30 17190 H 1614.63 -5.75711 -1.69344 0
M  V30 17191 H 1615.7 -4.80548 -0.648204 0
M  V30 17192 N 1617.04 0.356258 -1.53521 0
M  V30 17193 C 1617.97 1.44271 -1.83598 0
M  V30 17194 C 1618.95 1.5547 -0.690141 0
M  V30 17195 O 1620.14 1.69886 -0.940868 0
M  V30 17196 C 1617.27 2.8149 -2.03422 0
M  V30 17197 C 1616.22 2.85108 -3.19213 0
M  V30 17198 C 1615.55 4.25091 -3.24348 0
M  V30 17199 C 1616.85 2.51788 -4.57602 0
M  V30 17200 H 1618.54 1.1935 -2.74583 0
M  V30 17201 H 1616.09 0.572707 -1.32121 0
M  V30 17202 H 1618.04 3.57531 -2.23046 0
M  V30 17203 H 1616.76 3.07819 -1.09155 0
M  V30 17204 H 1615.42 2.1152 -2.99424 0
M  V30 17205 H 1615.07 4.4851 -2.277 0
M  V30 17206 H 1614.77 4.28426 -4.0215 0
M  V30 17207 H 1616.3 5.02992 -3.46167 0
M  V30 17208 H 1617.71 3.17542 -4.77326 0
M  V30 17209 H 1616.11 2.66426 -5.37715 0
M  V30 17210 H 1617.18 1.4701 -4.62078 0
M  V30 17211 N 1618.52 1.45038 0.616577 0
M  V30 17212 C 1619.75 1.52094 1.40267 0
M  V30 17213 C 1620.16 0.150558 1.88199 0
M  V30 17214 O 1619.52 -0.846258 1.61693 0
M  V30 17215 C 1619.57 2.49786 2.61322 0
M  V30 17216 O 1619.29 3.81498 2.15385 0
M  V30 17217 C 1620.79 2.66451 3.54286 0
M  V30 17218 H 1618.01 0.515378 0.429681 0
M  V30 17219 H 1620.56 1.90141 0.752768 0
M  V30 17220 H 1618.71 2.14835 3.22373 0
M  V30 17221 H 1619.13 4.34374 2.93972 0
M  V30 17222 H 1620.6 3.38802 4.35795 0
M  V30 17223 H 1621.08 1.72177 4.04044 0
M  V30 17224 H 1621.68 3.02362 2.99095 0
M  V30 17225 N 1620 -0.858287 1.32179 0
M  V30 17226 C 1620.95 -1.95454 1.17396 0
M  V30 17227 C 1621.93 -1.60692 0.0818403 0
M  V30 17228 O 1623.12 -1.743 0.307973 0
M  V30 17229 C 1620.25 -3.31416 0.895443 0
M  V30 17230 C 1619.34 -3.72409 2.0291 0
M  V30 17231 N 1619.73 -3.8526 3.27732 0
M  V30 17232 C 1618.03 -4.02009 1.93145 0
M  V30 17233 C 1618.73 -4.20479 4.01961 0
M  V30 17234 N 1617.7 -4.318 3.30227 0
M  V30 17235 H 1621.51 -2.03518 2.12033 0
M  V30 17236 H 1619.02 -1.04982 1.23905 0
M  V30 17237 H 1621.02 -4.09718 0.770504 0
M  V30 17238 H 1619.68 -3.24672 -0.0425798 0
M  V30 17239 H 1620.69 -3.69677 3.62711 0
M  V30 17240 H 1617.37 -4.03587 1.06882 0
M  V30 17241 H 1618.76 -4.37921 5.09583 0
M  V30 17242 N 1621.48 -1.1533 -1.07409 0
M  V30 17243 C 1622.72 -0.938329 -1.8159 0
M  V30 17244 C 1623.08 0.525171 -1.84678 0
M  V30 17245 O 1624.28 0.858449 -2.54724 0
M  V30 17246 C 1622.55 -1.53504 -3.22756 0
M  V30 17247 S 1624.11 -1.4631 -4.13689 0
M  V30 17248 H 1620.93 -0.337711 -0.625677 0
M  V30 17249 H 1623.53 -1.46868 -1.29035 0
M  V30 17250 H 1622.23 -2.59313 -3.18096 0
M  V30 17251 H 1621.77 -1.00353 -3.80385 0
M  V30 17252 H 1623.78 -0.455576 -4.94104 0
M  V30 17253 N 1622.95 1.25748 -0.950004 0
M  V30 17254 C 1624.23 1.88566 -0.519839 0
M  V30 17255 C 1624.61 1.85761 1.00279 0
M  V30 17256 O 1623.96 1.31797 1.8666 0
M  V30 17257 C 1624.17 3.31502 -1.09121 0
M  V30 17258 C 1625.52 4.08298 -1.16524 0
M  V30 17259 O 1626.54 3.40605 -1.04243 0
M  V30 17260 O 1625.4 5.29375 -1.35735 0
M  V30 17261 H 1622.49 0.809175 -0.170777 0
M  V30 17262 H 1625.04 1.33853 -1.04314 0
M  V30 17263 H 1623.81 3.2795 -2.13458 0
M  V30 17264 H 1623.43 3.93765 -0.550881 0
M  V30 17265 N 1624.43 0.718038 1.40292 0
M  V30 17266 C 1625.66 0.266918 2.05675 0
M  V30 17267 C 1626.08 -1.08364 1.53749 0
M  V30 17268 O 1625.44 -1.6831 0.673912 0
M  V30 17269 C 1625.49 0.259606 3.59664 0
M  V30 17270 O 1624.59 -0.758372 4.05367 0
M  V30 17271 H 1623.93 0.124786 0.652169 0
M  V30 17272 H 1626.46 0.979207 1.79646 0
M  V30 17273 H 1626.47 0.098135 4.07882 0
M  V30 17274 H 1625.15 1.24517 3.96823 0
M  V30 17275 H 1623.72 -0.564425 3.68604 0
M  V30 17276 N 1625.91 -1.50602 0.464402 0
M  V30 17277 C 1627.14 -2.07191 -0.0930678 0
M  V30 17278 C 1627.56 -1.32675 -1.33338 0
M  V30 17279 O 1626.92 -0.372453 -1.77433 0
M  V30 17280 C 1626.97 -3.5873 -0.366775 0
M  V30 17281 O 1626.07 -3.86125 -1.44849 0
M  V30 17282 H 1625.41 -0.663924 0.0100336 0
M  V30 17283 H 1627.94 -1.93882 0.653522 0
M  V30 17284 H 1627.95 -4.03425 -0.609258 0
M  V30 17285 H 1626.63 -4.12385 0.539608 0
M  V30 17286 H 1625.2 -3.53273 -1.19384 0
M  V30 17287 N 1627.39 -0.19675 -1.56367 0
M  V30 17288 C 1628.32 0.75534 -2.16396 0
M  V30 17289 C 1629.33 1.17558 -1.12623 0
M  V30 17290 O 1630.52 1.11102 -1.39709 0
M  V30 17291 C 1627.62 2.03159 -2.71256 0
M  V30 17292 C 1626.8 1.77088 -3.99948 0
M  V30 17293 C 1625.85 2.89176 -4.39618 0
M  V30 17294 O 1624.88 2.58712 -5.07007 0
M  V30 17295 N 1626.08 4.17569 -4.03257 0
M  V30 17296 H 1628.85 0.241991 -2.98721 0
M  V30 17297 H 1626.41 -0.0148423 -1.61893 0
M  V30 17298 H 1628.4 2.77287 -2.94778 0
M  V30 17299 H 1626.97 2.45611 -1.93375 0
M  V30 17300 H 1626.19 0.867309 -3.84541 0
M  V30 17301 H 1627.48 1.5707 -4.83949 0
M  V30 17302 H 1626.88 4.45171 -3.49054 0
M  V30 17303 H 1625.43 4.88319 -4.31726 0
M  V30 17304 N 1628.87 1.57413 0.0768405 0
M  V30 17305 C 1630.09 1.91607 0.793833 0
M  V30 17306 C 1630.52 0.792708 1.70581 0
M  V30 17307 O 1629.87 -0.25475 1.79501 0
M  V30 17308 C 1629.92 3.24736 1.56776 0
M  V30 17309 O 1629.03 3.13613 2.67807 0
M  V30 17310 H 1628.37 0.627572 0.216908 0
M  V30 17311 H 1630.9 2.04547 0.0465957 0
M  V30 17312 H 1630.91 3.58488 1.94809 0
M  V30 17313 H 1629.58 4.06077 0.898588 0
M  V30 17314 H 1628.16 2.91411 2.32668 0
M  V30 17315 N 1630.34 -0.348112 1.53707 0
M  V30 17316 C 1631.76 -0.923978 1.62233 0
M  V30 17317 C 1632.11 -1.89702 0.500744 0
M  V30 17318 O 1631.23 -2.1321 -0.370212 0
M  V30 17319 C 1631.83 -1.68261 2.94064 0
M  V30 17320 C 1630.39 -2.20755 3.04867 0
M  V30 17321 C 1629.53 -1.02526 2.5765 0
M  V30 17322 H 1632.48 -0.126381 1.58196 0
M  V30 17323 H 1632.5 -2.54514 2.82848 0
M  V30 17324 H 1632.02 -0.974155 3.75675 0
M  V30 17325 H 1630.12 -2.9479 2.27881 0
M  V30 17326 H 1630.23 -2.47439 4.10257 0
M  V30 17327 H 1628.59 -1.39735 2.12947 0
M  V30 17328 H 1629.38 -0.331521 3.41696 0
M  V30 17329 N 1631.82 -1.45363 -0.608876 0
M  V30 17330 C 1633.23 -1.43794 -1.19081 0
M  V30 17331 C 1633.58 -0.164874 -1.95506 0
M  V30 17332 O 1632.71 0.733623 -2.03585 0
M  V30 17333 C 1633.3 -2.60506 -2.16615 0
M  V30 17334 C 1631.86 -2.62061 -2.70187 0
M  V30 17335 C 1631.01 -2.36018 -1.4557 0
M  V30 17336 H 1633.96 -1.53622 -0.39826 0
M  V30 17337 H 1633.98 -2.34531 -2.99625 0
M  V30 17338 H 1633.49 -3.53147 -1.60963 0
M  V30 17339 H 1631.6 -1.73423 -3.2978 0
M  V30 17340 H 1631.71 -3.61242 -3.14708 0
M  V30 17341 H 1630.07 -1.8555 -1.74481 0
M  V30 17342 H 1630.86 -3.30802 -0.917884 0
M  V30 17343 N 1633.3 0.851265 -1.32632 0
M  V30 17344 C 1634.53 1.63805 -1.26394 0
M  V30 17345 C 1634.94 1.88056 0.167454 0
M  V30 17346 O 1634.3 1.45196 1.10564 0
M  V30 17347 C 1634.35 2.9954 -2.02381 0
M  V30 17348 O 1634.07 2.76361 -3.39935 0
M  V30 17349 C 1635.57 3.93982 -2.03207 0
M  V30 17350 H 1632.79 0.510088 -0.435948 0
M  V30 17351 H 1635.34 1.06123 -1.74809 0
M  V30 17352 H 1633.49 3.53859 -1.5768 0
M  V30 17353 H 1633.91 3.62708 -3.78871 0
M  V30 17354 H 1635.38 4.86478 -2.60851 0
M  V30 17355 H 1635.86 4.27211 -1.01918 0
M  V30 17356 H 1636.46 3.45601 -2.47871 0
M  V30 17357 N 1634.78 1.15898 1.06796 0
M  V30 17358 C 1635.73 0.860895 2.14143 0
M  V30 17359 C 1636.7 -0.188539 1.65026 0
M  V30 17360 O 1637.88 -0.0548558 1.90721 0
M  V30 17361 C 1635.02 0.362533 3.4319 0
M  V30 17362 C 1634.13 1.4742 4.06068 0
M  V30 17363 C 1633.27 0.931377 5.22971 0
M  V30 17364 C 1632.31 2.0196 5.77822 0
M  V30 17365 N 1631.44 1.49274 6.86048 0
M  V30 17366 H 1636.28 1.78023 2.38981 0
M  V30 17367 H 1633.82 0.888173 1.1726 0
M  V30 17368 H 1635.78 0.0552592 4.17163 0
M  V30 17369 H 1634.41 -0.519869 3.18586 0
M  V30 17370 H 1633.46 1.89754 3.29693 0
M  V30 17371 H 1634.77 2.29559 4.42836 0
M  V30 17372 H 1633.93 0.576982 6.0395 0
M  V30 17373 H 1632.67 0.0792265 4.87636 0
M  V30 17374 H 1631.67 2.38275 4.95485 0
M  V30 17375 H 1632.9 2.87562 6.15211 0
M  V30 17376 H 1630.84 0.663037 6.52641 0
M  V30 17377 H 1630.76 2.25035 7.21731 0
M  V30 17378 H 1632.03 1.16676 7.70718 0
M  V30 17379 N 1636.26 -1.25243 0.956659 0
M  V30 17380 C 1637.5 -1.93014 0.612538 0
M  V30 17381 C 1637.83 -1.74908 -0.85073 0
M  V30 17382 O 1637.09 -1.08896 -1.62604 0
M  V30 17383 C 1637.39 -3.4536 0.919849 0
M  V30 17384 C 1637.05 -3.83623 2.36948 0
M  V30 17385 C 1635.71 -3.93779 2.76571 0
M  V30 17386 C 1638.07 -4.02536 3.3108 0
M  V30 17387 C 1635.39 -4.20257 4.09391 0
M  V30 17388 C 1637.75 -4.30507 4.63515 0
M  V30 17389 C 1636.41 -4.3888 5.02932 0
M  V30 17390 H 1635.68 -0.706286 0.224144 0
M  V30 17391 H 1638.33 -1.48748 1.20608 0
M  V30 17392 H 1636.63 -3.9104 0.243941 0
M  V30 17393 H 1638.33 -3.95986 0.632143 0
M  V30 17394 H 1634.92 -3.76275 2.05219 0
M  V30 17395 H 1639.1 -3.94102 3.01657 0
M  V30 17396 H 1634.36 -4.24956 4.39571 0
M  V30 17397 H 1638.53 -4.44087 5.36433 0
M  V30 17398 H 1636.16 -4.59151 6.05875 0
M  V30 17399 N 1637.73 -0.725468 -1.3991 0
M  V30 17400 C 1638.66 -0.094211 -2.3331 0
M  V30 17401 C 1639.65 0.734728 -1.53414 0
M  V30 17402 O 1640.83 0.681647 -1.81844 0
M  V30 17403 C 1637.96 0.820958 -3.37457 0
M  V30 17404 C 1636.91 0.0968983 -4.2789 0
M  V30 17405 C 1636.24 1.12845 -5.22657 0
M  V30 17406 C 1637.54 -1.05483 -5.11537 0
M  V30 17407 H 1639.23 -0.874365 -2.86348 0
M  V30 17408 H 1636.78 -0.421913 -1.3768 0
M  V30 17409 H 1638.73 1.27203 -4.01743 0
M  V30 17410 H 1637.46 1.63312 -2.82837 0
M  V30 17411 H 1636.12 -0.334454 -3.65071 0
M  V30 17412 H 1635.76 1.93392 -4.64337 0
M  V30 17413 H 1635.46 0.648805 -5.84007 0
M  V30 17414 H 1636.99 1.57942 -5.89819 0
M  V30 17415 H 1638.4 -0.682657 -5.69221 0
M  V30 17416 H 1636.8 -1.46349 -5.81981 0
M  V30 17417 H 1637.87 -1.88095 -4.46932 0
M  V30 17418 N 1639.21 1.50354 -0.472382 0
M  V30 17419 C 1640.12 2.32318 0.326405 0
M  V30 17420 C 1641.14 1.4276 0.994771 0
M  V30 17421 O 1642.31 1.75811 0.98246 0
M  V30 17422 C 1639.38 3.17468 1.39337 0
M  V30 17423 C 1638.44 4.22848 0.741465 0
M  V30 17424 C 1637.67 5.03929 1.75759 0
M  V30 17425 O 1637.9 4.86105 2.98425 0
M  V30 17426 O 1636.83 5.87051 1.32871 0
M  V30 17427 H 1640.66 3.01749 -0.343702 0
M  V30 17428 H 1638.24 1.47553 -0.234207 0
M  V30 17429 H 1640.12 3.703 2.01136 0
M  V30 17430 H 1638.8 2.50764 2.04692 0
M  V30 17431 H 1637.71 3.74005 0.0844848 0
M  V30 17432 H 1639.04 4.92026 0.130838 0
M  V30 17433 N 1640.69 0.205039 1.56261 0
M  V30 17434 C 1641.62 -0.706815 2.22545 0
M  V30 17435 C 1642.6 -1.21372 1.19176 0
M  V30 17436 O 1643.79 -1.26074 1.47712 0
M  V30 17437 C 1640.92 -1.92221 2.89255 0
M  V30 17438 C 1639.87 -1.54982 3.98954 0
M  V30 17439 C 1639.2 -2.84265 4.52877 0
M  V30 17440 C 1640.5 -0.75225 5.16854 0
M  V30 17441 H 1642.19 -0.15421 2.99003 0
M  V30 17442 H 1639.74 -0.0727309 1.43816 0
M  V30 17443 H 1641.69 -2.56542 3.34311 0
M  V30 17444 H 1640.41 -2.49952 2.10218 0
M  V30 17445 H 1639.07 -0.930155 3.54604 0
M  V30 17446 H 1638.72 -3.40105 3.70591 0
M  V30 17447 H 1638.42 -2.60089 5.26904 0
M  V30 17448 H 1639.95 -3.49557 5.00642 0
M  V30 17449 H 1641.36 -1.29878 5.58395 0
M  V30 17450 H 1639.76 -0.60823 5.9701 0
M  V30 17451 H 1640.83 0.24463 4.84283 0
M  V30 17452 N 1642.17 -1.57451 -0.0684915 0
M  V30 17453 C 1643.42 -1.86595 -0.765856 0
M  V30 17454 C 1643.73 -0.798157 -1.78574 0
M  V30 17455 O 1644.94 -0.977541 -2.53291 0
M  V30 17456 C 1643.39 -3.31001 -1.41302 0
M  V30 17457 C 1643 -4.45917 -0.431528 0
M  V30 17458 C 1644.75 -3.6934 -2.09256 0
M  V30 17459 C 1642.65 -5.81366 -1.08479 0
M  V30 17460 H 1641.58 -0.696092 -0.289778 0
M  V30 17461 H 1644.23 -1.8349 -0.0192171 0
M  V30 17462 H 1642.62 -3.28728 -2.20803 0
M  V30 17463 H 1643.79 -4.59589 0.333913 0
M  V30 17464 H 1642.1 -4.16152 0.143743 0
M  V30 17465 H 1644.7 -4.67833 -2.58913 0
M  V30 17466 H 1645.04 -2.99308 -2.89344 0
M  V30 17467 H 1645.58 -3.73618 -1.36581 0
M  V30 17468 H 1642.32 -6.54698 -0.324162 0
M  V30 17469 H 1641.84 -5.71488 -1.82102 0
M  V30 17470 H 1643.52 -6.26811 -1.60367 0
M  V30 17471 N 1643.65 0.339955 -1.5389 0
M  V30 17472 C 1644.9 1.07766 -1.7097 0
M  V30 17473 C 1645.22 1.89064 -0.477486 0
M  V30 17474 O 1644.49 1.89183 0.508579 0
M  V30 17475 H 1643.07 0.400849 -0.630341 0
M  V30 17476 H 1645.73 0.380359 -1.91153 0
M  V30 17477 H 1644.82 1.75301 -2.58217 0
M  V30 17478 N 1645.13 1.45684 0.601159 0
M  V30 17479 C 1646.37 1.49308 1.3561 0
M  V30 17480 C 1646.69 0.141561 1.95087 0
M  V30 17481 O 1647.89 0.0554805 2.71443 0
M  V30 17482 C 1646.35 2.63001 2.4568 0
M  V30 17483 C 1645.96 4.04493 1.92586 0
M  V30 17484 C 1647.7 2.75877 3.22633 0
M  V30 17485 C 1645.61 5.09557 3.00176 0
M  V30 17486 H 1644.54 0.555604 0.509726 0
M  V30 17487 H 1647.19 1.71843 0.643606 0
M  V30 17488 H 1645.57 2.33761 3.19643 0
M  V30 17489 H 1646.75 4.4344 1.25289 0
M  V30 17490 H 1645.06 3.96123 1.28358 0
M  V30 17491 H 1647.66 3.51541 4.02893 0
M  V30 17492 H 1648 1.82737 3.74049 0
M  V30 17493 H 1648.53 3.04674 2.5577 0
M  V30 17494 H 1645.27 6.04427 2.53669 0
M  V30 17495 H 1644.79 4.75173 3.6602 0
M  V30 17496 H 1646.47 5.34591 3.64447 0
M  V30 17497 N 1646.6 -0.84422 1.33082 0
M  V30 17498 C 1647.57 -1.93519 1.22813 0
M  V30 17499 C 1648.57 -1.60113 0.148516 0
M  V30 17500 O 1649.76 -1.69553 0.399668 0
M  V30 17501 C 1646.89 -3.29045 0.891179 0
M  V30 17502 H 1648.08 -2.04051 2.1978 0
M  V30 17503 H 1645.63 -1.03567 1.17063 0
M  V30 17504 H 1646.37 -3.2421 -0.0762276 0
M  V30 17505 H 1646.15 -3.54671 1.67186 0
M  V30 17506 H 1647.64 -4.08984 0.843932 0
M  V30 17507 N 1648.08 -1.16463 -1.0618 0
M  V30 17508 C 1649.01 -0.829995 -2.13644 0
M  V30 17509 C 1650.03 0.16326 -1.61979 0
M  V30 17510 O 1651.22 -0.0616575 -1.78393 0
M  V30 17511 C 1648.32 -0.215222 -3.38216 0
M  V30 17512 C 1647.49 -1.24886 -4.19192 0
M  V30 17513 C 1646.55 -0.653683 -5.22124 0
M  V30 17514 O 1645.57 -1.32285 -5.53615 0
M  V30 17515 N 1646.78 0.559031 -5.77802 0
M  V30 17516 H 1649.54 -1.75487 -2.42949 0
M  V30 17517 H 1647.1 -1.06212 -1.22191 0
M  V30 17518 H 1649.09 0.196005 -4.04225 0
M  V30 17519 H 1647.66 0.613229 -3.06526 0
M  V30 17520 H 1646.88 -1.83622 -3.48822 0
M  V30 17521 H 1648.17 -1.94639 -4.70099 0
M  V30 17522 H 1647.57 1.12083 -5.54485 0
M  V30 17523 H 1646.13 0.912453 -6.45382 0
M  V30 17524 N 1649.56 1.24734 -0.963288 0
M  V30 17525 C 1650.81 1.92305 -0.621536 0
M  V30 17526 C 1651.13 1.75723 0.845363 0
M  V30 17527 O 1650.4 1.1261 1.60299 0
M  V30 17528 H 1648.98 0.71171 -0.226886 0
M  V30 17529 H 1651.64 1.5172 -1.2234 0
M  V30 17530 H 1650.74 3.00065 -0.858322 0
M  V30 17531 N 1651.04 0.732878 1.39523 0
M  V30 17532 C 1651.97 0.0519358 2.29141 0
M  V30 17533 C 1652.98 -0.705687 1.4671 0
M  V30 17534 O 1654.17 -0.550202 1.69809 0
M  V30 17535 C 1651.27 -0.950691 3.25292 0
M  V30 17536 C 1650.44 -0.255028 4.36656 0
M  V30 17537 C 1649.5 -1.16546 5.13131 0
M  V30 17538 O 1648.53 -0.643742 5.65548 0
M  V30 17539 N 1649.73 -2.49534 5.24131 0
M  V30 17540 H 1652.5 0.8215 2.88221 0
M  V30 17541 H 1650.06 0.581924 1.5108 0
M  V30 17542 H 1652.05 -1.56232 3.73328 0
M  V30 17543 H 1650.62 -1.62148 2.67258 0
M  V30 17544 H 1649.84 0.537045 3.90525 0
M  V30 17545 H 1651.13 0.227162 5.08293 0
M  V30 17546 H 1650.53 -2.944 4.83058 0
M  V30 17547 H 1649.08 -3.05798 5.75613 0
M  V30 17548 N 1652.52 -1.50101 0.480349 0
M  V30 17549 C 1653.45 -2.25419 -0.355186 0
M  V30 17550 C 1654.43 -1.2912 -0.988276 0
M  V30 17551 O 1655.61 -1.58364 -1.02241 0
M  V30 17552 C 1652.74 -3.03751 -1.49844 0
M  V30 17553 C 1651.78 -4.15046 -0.981799 0
M  V30 17554 S 1652.62 -5.35385 0.110936 0
M  V30 17555 C 1653.77 -6.17267 -1.03597 0
M  V30 17556 H 1654.01 -2.95939 0.284135 0
M  V30 17557 H 1651.54 -1.52103 0.265352 0
M  V30 17558 H 1653.5 -3.49471 -2.15361 0
M  V30 17559 H 1652.16 -2.32739 -2.1093 0
M  V30 17560 H 1651.35 -4.69292 -1.83795 0
M  V30 17561 H 1650.95 -3.7181 -0.404184 0
M  V30 17562 H 1653.24 -6.48961 -1.94565 0
M  V30 17563 H 1654.19 -7.06094 -0.532569 0
M  V30 17564 H 1654.6 -5.49469 -1.29398 0
M  V30 17565 N 1653.99 -0.213323 -1.5615 0
M  V30 17566 C 1655.22 0.425688 -2.02473 0
M  V30 17567 C 1655.64 1.53926 -1.09326 0
M  V30 17568 O 1654.99 1.82218 -0.101364 0
M  V30 17569 C 1655.04 0.965021 -3.48381 0
M  V30 17570 O 1654.77 -0.104145 -4.37976 0
M  V30 17571 C 1656.27 1.6781 -4.10311 0
M  V30 17572 H 1653.49 0.105064 -0.662724 0
M  V30 17573 H 1656.03 -0.327369 -2.01863 0
M  V30 17574 H 1654.19 1.66838 -3.49634 0
M  V30 17575 H 1654.6 0.299985 -5.23641 0
M  V30 17576 H 1656.07 2.00757 -5.14199 0
M  V30 17577 H 1656.55 2.58833 -3.54827 0
M  V30 17578 H 1657.16 1.02014 -4.12884 0
M  V30 17579 N 1655.47 1.57485 0.0601405 0
M  V30 17580 C 1656.72 1.88094 0.758192 0
M  V30 17581 C 1657.05 0.807138 1.76632 0
M  V30 17582 O 1656.33 -0.181347 1.93653 0
M  V30 17583 C 1656.61 3.29363 1.45574 0
M  V30 17584 C 1656.46 4.47408 0.463233 0
M  V30 17585 C 1657.78 3.69048 2.39773 0
M  V30 17586 H 1654.9 0.684106 0.274169 0
M  V30 17587 H 1657.54 1.89988 0.0212215 0
M  V30 17588 H 1655.69 3.27879 2.08393 0
M  V30 17589 H 1657.36 4.6102 -0.160641 0
M  V30 17590 H 1655.61 4.3324 -0.220408 0
M  V30 17591 H 1656.28 5.43065 0.989164 0
M  V30 17592 H 1658.75 3.71701 1.87024 0
M  V30 17593 H 1657.63 4.68761 2.85577 0
M  V30 17594 H 1657.89 2.9961 3.25094 0
M  V30 17595 N 1656.95 -0.331789 1.54068 0
M  V30 17596 C 1657.88 -1.41332 1.8587 0
M  V30 17597 C 1658.86 -1.54353 0.714787 0
M  V30 17598 O 1660.05 -1.68368 0.967777 0
M  V30 17599 C 1657.18 -2.78218 2.07875 0
M  V30 17600 C 1656.13 -2.79994 3.23709 0
M  V30 17601 C 1655.46 -4.19878 3.31069 0
M  V30 17602 C 1656.76 -2.44476 4.6155 0
M  V30 17603 H 1658.45 -1.14966 2.76447 0
M  V30 17604 H 1656 -0.551615 1.33016 0
M  V30 17605 H 1657.95 -3.53937 2.28706 0
M  V30 17606 H 1656.67 -3.06044 1.14038 0
M  V30 17607 H 1655.33 -2.0673 3.02751 0
M  V30 17608 H 1654.98 -4.44831 2.34807 0
M  V30 17609 H 1654.68 -4.21974 4.08915 0
M  V30 17610 H 1656.2 -4.97421 3.54125 0
M  V30 17611 H 1657.62 -3.09908 4.82317 0
M  V30 17612 H 1656.02 -2.57837 5.41886 0
M  V30 17613 H 1657.09 -1.3964 4.64358 0
M  V30 17614 N 1658.43 -1.46001 -0.593424 0
M  V30 17615 C 1659.84 -1.30719 -0.915678 0
M  V30 17616 C 1660.04 -0.270679 -1.99674 0
M  V30 17617 O 1659.1 0.330482 -2.50328 0
M  V30 17618 C 1660.41 -2.69034 -1.34318 0
M  V30 17619 C 1661.96 -2.77041 -1.45662 0
M  V30 17620 C 1662.44 -4.15913 -1.91783 0
M  V30 17621 N 1663.93 -4.18277 -1.98994 0
M  V30 17622 C 1664.66 -5.22612 -2.35932 0
M  V30 17623 N 1664.16 -6.37283 -2.71738 0
M  V30 17624 N 1665.95 -5.09975 -2.36394 0
M  V30 17625 H 1658.1 -2.12056 0.120882 0
M  V30 17626 H 1660.37 -0.947961 -0.00858574 0
M  V30 17627 H 1660.07 -3.4614 -0.622922 0
M  V30 17628 H 1659.95 -2.98434 -2.30688 0
M  V30 17629 H 1662.33 -2.0023 -2.16776 0
M  V30 17630 H 1662.41 -2.51338 -0.475706 0
M  V30 17631 H 1662.06 -4.93215 -1.2125 0
M  V30 17632 H 1661.99 -4.39016 -2.90813 0
M  V30 17633 H 1664.48 -3.35534 -1.73855 0
M  V30 17634 H 1664.79 -7.12679 -2.98846 0
M  V30 17635 H 1663.14 -6.40662 -2.69401 0
M  V30 17636 H 1666.33 -4.1943 -2.07836 0
M  V30 17637 H 1666.5 -5.91402 -2.64854 0
M  V30 17638 N 1659.91 0.83715 -1.33527 0
M  V30 17639 C 1660.84 1.96231 -1.26553 0
M  V30 17640 C 1661.82 1.69474 -0.14576 0
M  V30 17641 O 1663 1.91274 -0.335815 0
M  V30 17642 C 1660.13 3.32419 -1.00574 0
M  V30 17643 C 1659.09 3.73577 -2.08864 0
M  V30 17644 C 1658.41 5.07591 -1.68095 0
M  V30 17645 C 1659.71 3.87179 -3.50556 0
M  V30 17646 H 1661.41 2.02324 -2.20693 0
M  V30 17647 H 1658.95 0.972038 -1.06242 0
M  V30 17648 H 1660.91 4.10703 -0.943439 0
M  V30 17649 H 1659.63 3.26587 -0.0287268 0
M  V30 17650 H 1658.29 2.97557 -2.14139 0
M  V30 17651 H 1657.94 4.98232 -0.690922 0
M  V30 17652 H 1657.64 5.361 -2.40563 0
M  V30 17653 H 1659.16 5.88349 -1.63334 0
M  V30 17654 H 1660.57 4.55771 -3.47772 0
M  V30 17655 H 1658.97 4.27127 -4.21524 0
M  V30 17656 H 1660.04 2.8958 -3.88936 0
M  V30 17657 N 1661.38 1.17024 1.05561 0
M  V30 17658 C 1662.61 0.98075 1.82178 0
M  V30 17659 C 1663.03 -0.471027 1.8283 0
M  V30 17660 O 1662.38 -1.32703 1.25284 0
M  V30 17661 C 1662.44 1.50979 3.28463 0
M  V30 17662 O 1662.16 2.90471 3.27961 0
M  V30 17663 C 1663.66 1.36436 4.21782 0
M  V30 17664 H 1660.88 0.3472 0.574189 0
M  V30 17665 H 1663.42 1.55226 1.33136 0
M  V30 17666 H 1661.58 0.980393 3.74789 0
M  V30 17667 H 1661.99 3.14847 4.19489 0
M  V30 17668 H 1663.46 1.78272 5.2242 0
M  V30 17669 H 1663.94 0.310922 4.38098 0
M  V30 17670 H 1664.55 1.88374 3.81308 0
M  V30 17671 N 1662.86 -1.24221 0.969889 0
M  V30 17672 C 1663.77 -2.29001 0.509467 0
M  V30 17673 C 1664.79 -1.68587 -0.430637 0
M  V30 17674 O 1665.96 -1.99106 -0.303142 0
M  V30 17675 C 1663.03 -3.46174 -0.190906 0
M  V30 17676 C 1662.09 -4.21982 0.789296 0
M  V30 17677 C 1661.32 -5.3356 0.122252 0
M  V30 17678 O 1661.55 -5.59909 -1.08896 0
M  V30 17679 O 1660.48 -5.9635 0.815517 0
M  V30 17680 H 1664.31 -2.70506 1.38058 0
M  V30 17681 H 1661.89 -1.29955 0.737028 0
M  V30 17682 H 1663.77 -4.1733 -0.584244 0
M  V30 17683 H 1662.45 -3.06642 -1.03695 0
M  V30 17684 H 1661.36 -3.53192 1.23313 0
M  V30 17685 H 1662.69 -4.65337 1.60382 0
M  V30 17686 N 1664.34 -0.740267 -1.39132 0
M  V30 17687 C 1665.27 -0.118951 -2.33197 0
M  V30 17688 C 1666.25 0.718416 -1.54184 0
M  V30 17689 O 1667.44 0.662322 -1.82557 0
M  V30 17690 C 1664.57 0.78512 -3.38309 0
M  V30 17691 C 1663.52 0.0515093 -4.27969 0
M  V30 17692 C 1662.85 1.07295 -5.23824 0
M  V30 17693 C 1664.15 -1.10903 -5.1039 0
M  V30 17694 H 1665.84 -0.904687 -2.85405 0
M  V30 17695 H 1663.39 -0.436493 -1.37225 0
M  V30 17696 H 1665.34 1.22935 -4.03069 0
M  V30 17697 H 1664.06 1.60303 -2.84553 0
M  V30 17698 H 1662.72 -0.373156 -3.64696 0
M  V30 17699 H 1662.37 1.88456 -4.66362 0
M  V30 17700 H 1662.07 0.586827 -5.84662 0
M  V30 17701 H 1663.59 1.51677 -5.91461 0
M  V30 17702 H 1665.01 -0.742993 -5.68465 0
M  V30 17703 H 1663.41 -1.52513 -5.80396 0
M  V30 17704 H 1664.48 -1.92825 -4.44912 0
M  V30 17705 N 1665.82 1.49844 -0.488302 0
M  V30 17706 C 1666.75 2.31737 0.286432 0
M  V30 17707 C 1667.73 1.39424 0.974418 0
M  V30 17708 O 1668.91 1.68339 0.968274 0
M  V30 17709 C 1666.04 3.19616 1.35878 0
M  V30 17710 C 1665 4.20619 0.791409 0
M  V30 17711 C 1664.32 4.9735 1.96333 0
M  V30 17712 C 1665.62 5.21882 -0.208975 0
M  V30 17713 H 1667.32 2.96755 -0.397092 0
M  V30 17714 H 1664.86 1.42709 -0.192413 0
M  V30 17715 H 1666.82 3.75711 1.90838 0
M  V30 17716 H 1665.54 2.52516 2.07131 0
M  V30 17717 H 1664.2 3.65651 0.263647 0
M  V30 17718 H 1663.85 4.26708 2.66325 0
M  V30 17719 H 1663.55 5.65684 1.58983 0
M  V30 17720 H 1665.07 5.56286 2.51751 0
M  V30 17721 H 1666.49 5.72746 0.252049 0
M  V30 17722 H 1664.88 5.98033 -0.497638 0
M  V30 17723 H 1665.95 4.7157 -1.12916 0
M  V30 17724 N 1667.3 0.221601 1.56034 0
M  V30 17725 C 1668.21 -0.699837 2.23918 0
M  V30 17726 C 1669.22 -1.21367 1.24683 0
M  V30 17727 O 1670.4 -1.25527 1.57495 0
M  V30 17728 C 1667.46 -1.89107 2.90585 0
M  V30 17729 C 1666.52 -1.4192 4.05163 0
M  V30 17730 C 1665.76 -2.55365 4.68641 0
M  V30 17731 O 1665.98 -3.735 4.31108 0
M  V30 17732 O 1664.91 -2.26564 5.57631 0
M  V30 17733 H 1668.74 -0.151552 3.03322 0
M  V30 17734 H 1666.33 -0.0088482 1.49397 0
M  V30 17735 H 1668.21 -2.58674 3.32664 0
M  V30 17736 H 1666.88 -2.42745 2.14141 0
M  V30 17737 H 1665.79 -0.691536 3.67653 0
M  V30 17738 H 1667.12 -0.929189 4.8335 0
M  V30 17739 N 1668.77 -1.57515 -0.0517878 0
M  V30 17740 C 1670.19 -1.54323 -0.407009 0
M  V30 17741 C 1670.39 -0.944629 -1.77986 0
M  V30 17742 O 1669.45 -0.555785 -2.46307 0
M  V30 17743 C 1670.76 -2.98887 -0.329703 0
M  V30 17744 C 1672.31 -3.10324 -0.408443 0
M  V30 17745 C 1672.78 -4.56576 -0.360833 0
M  V30 17746 N 1674.27 -4.61289 -0.420313 0
M  V30 17747 C 1675.01 -5.71961 -0.406007 0
M  V30 17748 N 1674.5 -6.91939 -0.34533 0
M  V30 17749 N 1676.3 -5.60263 -0.454054 0
M  V30 17750 H 1668.45 -1.94785 0.846907 0
M  V30 17751 H 1670.71 -0.892417 0.319838 0
M  V30 17752 H 1670.42 -3.4632 0.612802 0
M  V30 17753 H 1670.29 -3.59806 -1.13222 0
M  V30 17754 H 1672.68 -2.62852 -1.34138 0
M  V30 17755 H 1672.76 -2.52278 0.423018 0
M  V30 17756 H 1672.4 -5.0471 0.568335 0
M  V30 17757 H 1672.33 -5.12508 -1.2101 0
M  V30 17758 H 1674.82 -3.74958 -0.470644 0
M  V30 17759 H 1675.14 -7.72057 -0.338889 0
M  V30 17760 H 1673.48 -6.94301 -0.311715 0
M  V30 17761 H 1676.67 -4.6543 -0.499289 0
M  V30 17762 H 1676.85 -6.46508 -0.439435 0
M  V30 17763 N 1670.25 0.323614 -1.54242 0
M  V30 17764 C 1671.5 1.05947 -1.72104 0
M  V30 17765 C 1671.82 1.88547 -0.497512 0
M  V30 17766 O 1671.09 1.89712 0.488485 0
M  V30 17767 H 1669.67 0.394141 -0.634557 0
M  V30 17768 H 1672.33 0.360063 -1.91545 0
M  V30 17769 H 1671.43 1.72552 -2.60062 0
M  V30 17770 N 1671.73 1.46313 0.585673 0
M  V30 17771 C 1672.64 1.59232 1.72286 0
M  V30 17772 C 1673.66 0.475912 1.67365 0
M  V30 17773 O 1674.83 0.739627 1.87327 0
M  V30 17774 C 1671.9 1.57647 3.08785 0
M  V30 17775 C 1670.96 2.80497 3.24992 0
M  V30 17776 C 1670.19 2.78978 4.5498 0
M  V30 17777 O 1670.42 1.87553 5.38684 0
M  V30 17778 O 1669.35 3.7048 4.74371 0
M  V30 17779 H 1673.18 2.55398 1.64334 0
M  V30 17780 H 1670.76 1.29073 0.752369 0
M  V30 17781 H 1672.64 1.59448 3.90069 0
M  V30 17782 H 1671.32 0.6464 3.1718 0
M  V30 17783 H 1670.22 2.8425 2.43213 0
M  V30 17784 H 1671.56 3.72703 3.21487 0
M  V30 17785 N 1673.21 -0.830057 1.33969 0
M  V30 17786 C 1674.63 -1.12209 1.13496 0
M  V30 17787 C 1674.83 -2.01384 -0.0682972 0
M  V30 17788 O 1673.88 -2.4123 -0.745949 0
M  V30 17789 C 1675.19 -1.77568 2.42673 0
M  V30 17790 C 1676.74 -1.90095 2.48662 0
M  V30 17791 C 1677.22 -2.5887 3.77823 0
M  V30 17792 N 1678.71 -2.66375 3.78944 0
M  V30 17793 C 1679.44 -3.20301 4.75599 0
M  V30 17794 N 1678.94 -3.74846 5.82634 0
M  V30 17795 N 1680.73 -3.18636 4.63063 0
M  V30 17796 H 1672.88 -0.236752 2.11076 0
M  V30 17797 H 1675.15 -0.167572 0.933072 0
M  V30 17798 H 1674.85 -1.19505 3.30774 0
M  V30 17799 H 1674.73 -2.77505 2.55481 0
M  V30 17800 H 1677.11 -2.47308 1.61005 0
M  V30 17801 H 1677.19 -0.890808 2.39788 0
M  V30 17802 H 1676.84 -2.02313 4.65867 0
M  V30 17803 H 1676.77 -3.60373 3.83978 0
M  V30 17804 H 1679.26 -2.27705 3.01594 0
M  V30 17805 H 1679.57 -4.14224 6.52409 0
M  V30 17806 H 1677.92 -3.7311 5.86357 0
M  V30 17807 H 1681.11 -2.75286 3.78597 0
M  V30 17808 H 1681.28 -3.60359 5.38559 0
M  V30 17809 N 1674.69 -1.17582 -1.04939 0
M  V30 17810 C 1675.62 -0.918221 -2.14688 0
M  V30 17811 C 1676.6 0.140757 -1.69517 0
M  V30 17812 O 1677.78 -0.0100118 -1.94197 0
M  V30 17813 C 1674.91 -0.433531 -3.44584 0
M  V30 17814 C 1673.87 -1.43199 -4.03334 0
M  V30 17815 C 1673.19 -0.805154 -5.28603 0
M  V30 17816 C 1674.49 -2.80598 -4.40525 0
M  V30 17817 H 1676.19 -1.83604 -2.36495 0
M  V30 17818 H 1673.73 -0.884202 -1.13657 0
M  V30 17819 H 1675.69 -0.240722 -4.20712 0
M  V30 17820 H 1674.41 0.519832 -3.22437 0
M  V30 17821 H 1673.07 -1.61158 -3.29277 0
M  V30 17822 H 1672.72 0.155124 -5.02761 0
M  V30 17823 H 1672.42 -1.4717 -5.68871 0
M  V30 17824 H 1673.94 -0.622677 -6.07417 0
M  V30 17825 H 1675.36 -2.66341 -5.07676 0
M  V30 17826 H 1673.75 -3.43854 -4.91817 0
M  V30 17827 H 1674.82 -3.34815 -3.50752 0
M  V30 17828 N 1676.17 1.23705 -0.976463 0
M  V30 17829 C 1677.58 1.73848 -0.680723 0
M  V30 17830 C 1677.93 1.79005 0.803228 0
M  V30 17831 O 1677.05 1.42529 1.62832 0
M  V30 17832 C 1677.65 3.15724 -1.22898 0
M  V30 17833 C 1676.21 3.63338 -0.982963 0
M  V30 17834 C 1675.35 2.41712 -1.35906 0
M  V30 17835 H 1678.3 1.09284 -1.15077 0
M  V30 17836 H 1678.33 3.75748 -0.599487 0
M  V30 17837 H 1677.84 3.11938 -2.30903 0
M  V30 17838 H 1675.94 3.72512 0.0811766 0
M  V30 17839 H 1676.05 4.50347 -1.63477 0
M  V30 17840 H 1674.42 2.42543 -0.777498 0
M  V30 17841 H 1675.2 2.40601 -2.4488 0
M  V30 17842 N 1677.64 0.747635 1.38738 0
M  V30 17843 C 1679.06 0.424577 1.53849 0
M  V30 17844 C 1679.26 -1.06304 1.71177 0
M  V30 17845 O 1678.32 -1.84912 1.71941 0
M  V30 17846 C 1679.63 1.21863 2.749 0
M  V30 17847 C 1681.18 1.20811 2.88745 0
M  V30 17848 C 1681.65 1.985 4.12749 0
M  V30 17849 N 1683.14 1.9573 4.19814 0
M  V30 17850 C 1683.88 2.52641 5.14743 0
M  V30 17851 N 1683.37 3.18241 6.15382 0
M  V30 17852 N 1685.17 2.42604 5.0705 0
M  V30 17853 H 1677.32 1.71182 1.25739 0
M  V30 17854 H 1679.58 0.725358 0.610376 0
M  V30 17855 H 1679.29 2.27181 2.6848 0
M  V30 17856 H 1679.16 0.831509 3.67921 0
M  V30 17857 H 1681.55 0.163013 2.94649 0
M  V30 17858 H 1681.63 1.6347 1.96752 0
M  V30 17859 H 1681.27 3.03017 4.07606 0
M  V30 17860 H 1681.2 1.53239 5.03811 0
M  V30 17861 H 1683.69 1.4795 3.47734 0
M  V30 17862 H 1684.01 3.59101 6.843 0
M  V30 17863 H 1682.35 3.22334 6.15732 0
M  V30 17864 H 1685.54 1.90987 4.27366 0
M  V30 17865 H 1685.72 2.87253 5.80852 0
M  V30 17866 N 1679.12 -1.49583 0.496242 0
M  V30 17867 C 1680.53 -1.8664 0.0472756 0
M  V30 17868 C 1680.88 -1.40898 -1.36536 0
M  V30 17869 O 1680.01 -0.784796 -2.01668 0
M  V30 17870 C 1680.6 -3.38708 0.079016 0
M  V30 17871 C 1679.16 -3.75083 -0.314587 0
M  V30 17872 C 1678.31 -2.73565 0.453624 0
M  V30 17873 H 1681.26 -1.41969 0.709269 0
M  V30 17874 H 1681.28 -3.73676 -0.717396 0
M  V30 17875 H 1680.79 -3.71969 1.10727 0
M  V30 17876 H 1678.89 -3.47429 -1.34625 0
M  V30 17877 H 1679.01 -4.791 0.00155427 0
M  V30 17878 H 1677.37 -2.54519 -0.095937 0
M  V30 17879 H 1678.15 -3.0967 1.48186 0
M  V30 17880 N 1680.6 -0.229873 -1.55915 0
M  V30 17881 C 1681.88 0.449007 -1.90377 0
M  V30 17882 C 1682.26 1.77133 -1.14835 0
M  V30 17883 O 1681.6 2.27012 -0.260328 0
M  V30 17884 C 1681.81 0.633805 -3.43197 0
M  V30 17885 C 1683.16 0.937453 -4.14122 0
M  V30 17886 O 1684.19 0.72029 -3.48841 0
M  V30 17887 O 1683.05 1.35005 -5.29562 0
M  V30 17888 H 1680.14 0.238557 -0.791846 0
M  V30 17889 H 1682.69 -0.272676 -1.67495 0
M  V30 17890 H 1681.46 -0.298587 -3.90159 0
M  V30 17891 H 1681.08 1.40667 -3.71885 0
M  V30 17892 N 1682.08 1.5754 0.0434337 0
M  V30 17893 C 1683.02 2.0561 1.04848 0
M  V30 17894 C 1683.99 0.942299 1.36784 0
M  V30 17895 O 1685.18 1.21191 1.47368 0
M  V30 17896 C 1682.32 2.52844 2.3487 0
M  V30 17897 C 1681.43 3.77958 2.09218 0
M  V30 17898 C 1680.57 4.13859 3.33007 0
M  V30 17899 C 1679.61 5.31932 3.02845 0
M  V30 17900 N 1678.74 5.63335 4.19045 0
M  V30 17901 H 1683.58 2.9123 0.631591 0
M  V30 17902 H 1681.12 1.44003 0.300258 0
M  V30 17903 H 1683.08 2.78291 3.10822 0
M  V30 17904 H 1681.71 1.70161 2.74308 0
M  V30 17905 H 1680.76 3.59681 1.23828 0
M  V30 17906 H 1682.07 4.64034 1.82958 0
M  V30 17907 H 1681.23 4.40358 4.17336 0
M  V30 17908 H 1679.97 3.26406 3.62368 0
M  V30 17909 H 1678.97 5.052 2.16916 0
M  V30 17910 H 1680.2 6.21027 2.74777 0
M  V30 17911 H 1678.14 4.7884 4.48384 0
M  V30 17912 H 1678.06 6.4389 3.96158 0
M  V30 17913 H 1679.33 5.94402 5.04289 0
M  V30 17914 N 1683.56 -0.31543 1.54411 0
M  V30 17915 C 1684.8 -1.06053 1.74734 0
M  V30 17916 C 1685.16 -1.84978 0.51451 0
M  V30 17917 O 1686.36 -2.62127 0.595228 0
M  V30 17918 C 1684.63 -1.95417 2.99244 0
M  V30 17919 S 1686.19 -2.76769 3.40506 0
M  V30 17920 H 1683.01 -0.357904 0.61435 0
M  V30 17921 H 1685.61 -0.33558 1.92598 0
M  V30 17922 H 1684.31 -1.36285 3.8711 0
M  V30 17923 H 1683.85 -2.72304 2.83926 0
M  V30 17924 H 1685.86 -3.97914 2.96444 0
M  V30 17925 N 1685.03 -1.46622 -0.577906 0
M  V30 17926 C 1686.45 -1.46287 -1.16004 0
M  V30 17927 C 1686.8 -0.206307 -1.95112 0
M  V30 17928 O 1685.92 0.690275 -2.05096 0
M  V30 17929 C 1686.52 -2.65042 -2.1104 0
M  V30 17930 C 1685.08 -2.67733 -2.64567 0
M  V30 17931 C 1684.22 -2.39053 -1.40531 0
M  V30 17932 H 1687.17 -1.54432 -0.365585 0
M  V30 17933 H 1687.19 -2.40834 -2.94583 0
M  V30 17934 H 1686.71 -3.56481 -1.53436 0
M  V30 17935 H 1684.81 -1.80379 -3.26028 0
M  V30 17936 H 1684.92 -3.67836 -3.06974 0
M  V30 17937 H 1683.28 -1.89209 -1.70506 0
M  V30 17938 H 1684.07 -3.32674 -0.847509 0
M  V30 17939 N 1686.51 0.822941 -1.34408 0
M  V30 17940 C 1687.75 1.59269 -1.28112 0
M  V30 17941 C 1688.12 1.91437 0.146924 0
M  V30 17942 O 1689.32 2.66716 0.334053 0
M  V30 17943 C 1687.59 2.85727 -2.14698 0
M  V30 17944 S 1689.15 3.76272 -2.25754 0
M  V30 17945 H 1685.97 0.545903 -0.455534 0
M  V30 17946 H 1688.57 0.972069 -1.6962 0
M  V30 17947 H 1687.27 2.60092 -3.17459 0
M  V30 17948 H 1686.8 3.52786 -1.74086 0
M  V30 17949 H 1688.82 4.75138 -1.43031 0
M  V30 17950 N 1687.99 1.18137 1.04314 0
M  V30 17951 C 1688.9 0.921044 2.15764 0
M  V30 17952 C 1689.92 -0.11396 1.73626 0
M  V30 17953 O 1691.09 0.0673733 2.01287 0
M  V30 17954 C 1688.16 0.447581 3.43799 0
M  V30 17955 C 1687.22 1.55025 4.00332 0
M  V30 17956 C 1686.45 1.09928 5.22256 0
M  V30 17957 O 1686.67 -0.0430152 5.70384 0
M  V30 17958 O 1685.61 1.896 5.71258 0
M  V30 17959 H 1689.43 1.85353 2.40579 0
M  V30 17960 H 1687.02 0.962985 1.14223 0
M  V30 17961 H 1688.9 0.191497 4.20965 0
M  V30 17962 H 1687.58 -0.456641 3.20463 0
M  V30 17963 H 1686.48 1.86032 3.24566 0
M  V30 17964 H 1687.82 2.4305 4.28004 0
M  V30 17965 N 1689.47 -1.23186 0.98301 0
M  V30 17966 C 1690.71 -1.91955 0.65431 0
M  V30 17967 C 1691.05 -1.76482 -0.810419 0
M  V30 17968 O 1690.32 -1.12744 -1.5849 0
M  V30 17969 C 1690.61 -3.4449 1.04873 0
M  V30 17970 C 1690.46 -3.6906 2.57128 0
M  V30 17971 C 1691.78 -4.36065 0.594578 0
M  V30 17972 H 1688.9 -0.69711 0.239179 0
M  V30 17973 H 1691.54 -1.45257 1.22476 0
M  V30 17974 H 1689.69 -3.84394 0.563333 0
M  V30 17975 H 1691.36 -3.38622 3.13262 0
M  V30 17976 H 1689.6 -3.13681 2.99644 0
M  V30 17977 H 1690.27 -4.75846 2.79776 0
M  V30 17978 H 1692.75 -4.03622 1.01136 0
M  V30 17979 H 1691.63 -5.41489 0.898955 0
M  V30 17980 H 1691.89 -4.39206 -0.505033 0
M  V30 17981 N 1690.95 -0.754982 -1.38339 0
M  V30 17982 C 1692.18 -0.322156 -2.04073 0
M  V30 17983 C 1692.58 1.05488 -1.57063 0
M  V30 17984 O 1691.93 1.68154 -0.739597 0
M  V30 17985 C 1691.99 -0.267836 -3.58501 0
M  V30 17986 C 1691.65 -1.58665 -4.28572 0
M  V30 17987 C 1692.65 -2.53609 -4.53849 0
M  V30 17988 C 1690.34 -1.85647 -4.66734 0
M  V30 17989 C 1692.33 -3.73753 -5.16321 0
M  V30 17990 C 1690.02 -3.06065 -5.28931 0
M  V30 17991 C 1691.01 -3.99938 -5.53659 0
M  V30 17992 O 1690.7 -5.18238 -6.14561 0
M  V30 17993 H 1690.43 -0.135341 -0.662313 0
M  V30 17994 H 1692.99 -1.02517 -1.77987 0
M  V30 17995 H 1691.22 0.491434 -3.83565 0
M  V30 17996 H 1692.91 0.135662 -4.05673 0
M  V30 17997 H 1693.67 -2.3404 -4.24794 0
M  V30 17998 H 1689.55 -1.13415 -4.46831 0
M  V30 17999 H 1693.1 -4.47039 -5.35539 0
M  V30 18000 H 1688.99 -3.25526 -5.57408 0
M  V30 18001 H 1689.76 -5.18838 -6.33047 0
M  V30 18002 N 1692.42 1.49318 -0.504168 0
M  V30 18003 C 1693.37 2.26124 0.291886 0
M  V30 18004 C 1694.36 1.31105 0.932753 0
M  V30 18005 O 1695.55 1.55807 0.839828 0
M  V30 18006 C 1692.68 3.15477 1.35384 0
M  V30 18007 C 1691.77 4.1796 0.719059 0
M  V30 18008 N 1692.16 5.05479 -0.180167 0
M  V30 18009 C 1690.45 4.35116 0.979276 0
M  V30 18010 C 1691.16 5.79152 -0.543837 0
M  V30 18011 N 1690.13 5.43527 0.0889959 0
M  V30 18012 H 1693.93 2.91161 -0.400301 0
M  V30 18013 H 1691.45 1.59207 -0.320454 0
M  V30 18014 H 1693.44 3.69137 1.93762 0
M  V30 18015 H 1692.1 2.51993 2.04767 0
M  V30 18016 H 1693.12 5.14959 -0.551179 0
M  V30 18017 H 1689.79 3.82836 1.66562 0
M  V30 18018 H 1691.18 6.59601 -1.27968 0
M  V30 18019 N 1693.9 0.238138 1.5579 0
M  V30 18020 C 1694.83 -0.659451 2.23994 0
M  V30 18021 C 1695.81 -1.18817 1.21723 0
M  V30 18022 O 1697 -1.22913 1.50353 0
M  V30 18023 C 1694.13 -1.86043 2.93267 0
M  V30 18024 C 1693.08 -1.46485 4.02152 0
M  V30 18025 C 1692.41 -2.74595 4.58805 0
M  V30 18026 C 1693.71 -0.642448 5.18334 0
M  V30 18027 H 1695.4 -0.0907522 2.99262 0
M  V30 18028 H 1692.95 -0.042209 1.43938 0
M  V30 18029 H 1694.9 -2.49393 3.39678 0
M  V30 18030 H 1693.63 -2.45436 2.15473 0
M  V30 18031 H 1692.28 -0.854729 3.56497 0
M  V30 18032 H 1691.93 -3.32168 3.77721 0
M  V30 18033 H 1691.63 -2.48854 5.32302 0
M  V30 18034 H 1693.16 -3.38859 5.07944 0
M  V30 18035 H 1694.57 -1.18005 5.61024 0
M  V30 18036 H 1692.97 -0.481458 5.98166 0
M  V30 18037 H 1694.04 0.347298 4.83655 0
M  V30 18038 N 1695.38 -1.57561 -0.0350783 0
M  V30 18039 C 1696.31 -2.01535 -1.07046 0
M  V30 18040 C 1697.29 -0.898604 -1.35513 0
M  V30 18041 O 1698.48 -1.16395 -1.48271 0
M  V30 18042 C 1695.6 -2.3833 -2.40659 0
M  V30 18043 C 1694.65 -3.60386 -2.28088 0
M  V30 18044 S 1695.48 -5.09768 -1.64001 0
M  V30 18045 C 1696.64 -5.498 -2.99116 0
M  V30 18046 H 1696.87 -2.89041 -0.695884 0
M  V30 18047 H 1694.4 -1.52446 -0.244859 0
M  V30 18048 H 1696.36 -2.602 -3.175 0
M  V30 18049 H 1695.02 -1.51286 -2.75266 0
M  V30 18050 H 1694.22 -3.83767 -3.26709 0
M  V30 18051 H 1693.82 -3.38336 -1.59389 0
M  V30 18052 H 1696.11 -5.50117 -3.95447 0
M  V30 18053 H 1697.05 -6.50184 -2.80475 0
M  V30 18054 H 1697.46 -4.77296 -3.01412 0
M  V30 18055 N 1696.86 0.307236 -1.54576 0
M  V30 18056 C 1697.81 1.3787 -1.85096 0
M  V30 18057 C 1698.78 1.5066 -0.69935 0
M  V30 18058 O 1699.96 1.65618 -0.947373 0
M  V30 18059 C 1697.1 2.73976 -2.09836 0
M  V30 18060 C 1696.21 2.69687 -3.3748 0
M  V30 18061 C 1695.35 3.97746 -3.52096 0
M  V30 18062 C 1694.39 3.87829 -4.73556 0
M  V30 18063 N 1693.52 5.07651 -4.8501 0
M  V30 18064 H 1698.36 1.11144 -2.76498 0
M  V30 18065 H 1695.9 0.537696 -1.36921 0
M  V30 18066 H 1697.86 3.53121 -2.22174 0
M  V30 18067 H 1696.49 2.98977 -1.21707 0
M  V30 18068 H 1695.54 1.82441 -3.33795 0
M  V30 18069 H 1696.85 2.58247 -4.26743 0
M  V30 18070 H 1696.01 4.85327 -3.64065 0
M  V30 18071 H 1694.75 4.12012 -2.60955 0
M  V30 18072 H 1693.75 2.98633 -4.61626 0
M  V30 18073 H 1694.98 3.75114 -5.66098 0
M  V30 18074 H 1692.92 5.22393 -3.9679 0
M  V30 18075 H 1692.84 4.9861 -5.68264 0
M  V30 18076 H 1694.11 5.969 -5.01328 0
M  V30 18077 N 1698.34 1.46926 0.570122 0
M  V30 18078 C 1699.28 1.5883 1.69929 0
M  V30 18079 C 1700.28 0.456167 1.63143 0
M  V30 18080 O 1701.48 0.633503 1.68484 0
M  V30 18081 H 1697.86 0.499606 0.562048 0
M  V30 18082 H 1699.83 2.53744 1.57023 0
M  V30 18083 C 1698.58 1.60761 3.08304 0
M  V30 18084 H 1697.9 2.47219 3.14202 0
M  V30 18085 H 1699.34 1.73142 3.87037 0
M  V30 18086 C 1697.8 0.338515 3.35195 0
M  V30 18087 O 1698.33 -0.565917 3.97694 0
M  V30 18088 N 1696.54 0.222525 2.89747 0
M  V30 18089 H 1696.08 0.959435 2.39066 0
M  V30 18090 H 1696.04 -0.625697 3.08111 0
M  V30 18091 N 1699.82 -0.815801 1.34842 0
M  V30 18092 C 1701.06 -1.58588 1.28955 0
M  V30 18093 C 1701.42 -1.91512 -0.136769 0
M  V30 18094 O 1702.62 -2.6689 -0.319903 0
M  V30 18095 C 1700.89 -2.84584 2.1621 0
M  V30 18096 S 1702.45 -3.75069 2.27747 0
M  V30 18097 H 1699.27 -0.543479 0.458422 0
M  V30 18098 H 1701.87 -0.96306 1.70133 0
M  V30 18099 H 1700.57 -2.58405 3.18834 0
M  V30 18100 H 1700.11 -3.51857 1.75954 0
M  V30 18101 H 1702.12 -4.74373 1.45549 0
M  V30 18102 N 1701.29 -1.18689 -1.03686 0
M  V30 18103 C 1702.54 -0.996079 -1.77341 0
M  V30 18104 C 1702.89 0.468989 -1.86597 0
M  V30 18105 O 1702.19 1.34372 -1.36583 0
M  V30 18106 C 1702.38 -1.58911 -3.20128 0
M  V30 18107 C 1702.21 -3.11032 -3.24791 0
M  V30 18108 C 1700.98 -3.79876 -3.332 0
M  V30 18109 C 1703.18 -4.0848 -3.12488 0
M  V30 18110 N 1701.16 -5.19465 -3.27153 0
M  V30 18111 C 1702.53 -5.34616 -3.13984 0
M  V30 18112 C 1704.59 -3.99947 -2.96558 0
M  V30 18113 C 1703.29 -6.53208 -3.01185 0
M  V30 18114 C 1705.32 -5.1814 -2.85106 0
M  V30 18115 C 1704.68 -6.4317 -2.87249 0
M  V30 18116 H 1700.78 -0.418538 -0.660568 0
M  V30 18117 H 1703.36 -1.50528 -1.23488 0
M  V30 18118 H 1701.53 -1.10603 -3.72319 0
M  V30 18119 H 1703.26 -1.33344 -3.82101 0
M  V30 18120 H 1700.02 -3.30627 -3.39091 0
M  V30 18121 H 1700.44 -5.92482 -3.27558 0
M  V30 18122 H 1705.08 -3.04111 -2.93729 0
M  V30 18123 H 1702.8 -7.49239 -3.02766 0
M  V30 18124 H 1706.39 -5.13332 -2.73828 0
M  V30 18125 H 1705.27 -7.33089 -2.78479 0
M  V30 18126 N 1702.77 1.22662 -0.989529 0
M  V30 18127 C 1703.68 2.28162 -0.545835 0
M  V30 18128 C 1704.7 1.69251 0.403762 0
M  V30 18129 O 1705.87 1.99563 0.271428 0
M  V30 18130 C 1702.94 3.46434 0.135808 0
M  V30 18131 C 1702 4.20673 -0.85633 0
M  V30 18132 C 1701.23 5.33298 -0.207121 0
M  V30 18133 O 1701.46 5.6157 0.99975 0
M  V30 18134 O 1700.39 5.94977 -0.910288 0
M  V30 18135 H 1704.22 2.68276 -1.42344 0
M  V30 18136 H 1701.8 1.28766 -0.757609 0
M  V30 18137 H 1703.68 4.18207 0.517776 0
M  V30 18138 H 1702.36 3.08252 0.988035 0
M  V30 18139 H 1701.26 3.51186 -1.28917 0
M  V30 18140 H 1702.6 4.62726 -1.67765 0
M  V30 18141 N 1704.25 0.762308 1.37937 0
M  V30 18142 C 1705.48 0.333458 2.04195 0
M  V30 18143 C 1705.89 -1.04118 1.57496 0
M  V30 18144 O 1705.25 -1.66289 0.751938 0
M  V30 18145 C 1705.3 0.35685 3.59734 0
M  V30 18146 O 1705.02 1.67725 4.04722 0
M  V30 18147 C 1706.52 -0.0847776 4.43219 0
M  V30 18148 H 1703.74 0.141107 0.655995 0
M  V30 18149 H 1706.29 1.03359 1.76457 0
M  V30 18150 H 1704.44 -0.294625 3.86278 0
M  V30 18151 H 1704.86 1.60939 4.99198 0
M  V30 18152 H 1706.33 -0.017252 5.51997 0
M  V30 18153 H 1706.81 -1.13387 4.24311 0
M  V30 18154 H 1707.41 0.538151 4.21882 0
M  V30 18155 N 1705.73 -1.49049 0.51208 0
M  V30 18156 C 1706.64 -2.33102 -0.264695 0
M  V30 18157 C 1707.65 -1.45347 -0.956571 0
M  V30 18158 O 1708.83 -1.78355 -0.935501 0
M  V30 18159 C 1705.89 -3.21051 -1.30871 0
M  V30 18160 C 1704.96 -4.24666 -0.629094 0
M  V30 18161 C 1704.19 -5.08412 -1.62337 0
M  V30 18162 O 1704.41 -4.93847 -2.85432 0
M  V30 18163 O 1703.35 -5.90368 -1.17259 0
M  V30 18164 H 1707.17 -3.00732 0.423585 0
M  V30 18165 H 1704.76 -1.4688 0.273246 0
M  V30 18166 H 1706.64 -3.75503 -1.91248 0
M  V30 18167 H 1705.31 -2.56103 -1.97972 0
M  V30 18168 H 1704.22 -3.74097 0.0147056 0
M  V30 18169 H 1705.55 -4.922 -0.000339859 0
M  V30 18170 N 1707.21 -0.246397 -1.55662 0
M  V30 18171 C 1708.17 0.640041 -2.20082 0
M  V30 18172 C 1709.17 1.10313 -1.16994 0
M  V30 18173 O 1710.36 1.00792 -1.42079 0
M  V30 18174 C 1707.49 1.87964 -2.84398 0
M  V30 18175 H 1708.68 0.0780034 -2.99799 0
M  V30 18176 H 1706.24 0.00314588 -1.563 0
M  V30 18177 H 1706.97 2.48292 -2.08618 0
M  V30 18178 H 1706.76 1.5558 -3.59913 0
M  V30 18179 H 1708.25 2.51065 -3.33701 0
M  V30 18180 N 1708.68 1.57577 0.026722 0
M  V30 18181 C 1709.91 1.94035 0.732473 0
M  V30 18182 C 1710.33 0.846575 1.67972 0
M  V30 18183 O 1709.69 -0.197514 1.80221 0
M  V30 18184 C 1709.74 3.2956 1.46365 0
M  V30 18185 O 1708.84 3.21975 2.57694 0
M  V30 18186 H 1708.18 0.634155 0.196832 0
M  V30 18187 H 1710.71 2.04592 -0.018503 0
M  V30 18188 H 1710.72 3.64504 1.83305 0
M  V30 18189 H 1709.4 4.0873 0.768943 0
M  V30 18190 H 1707.98 2.98665 2.23279 0
M  V30 18191 N 1710.16 -0.299034 1.54737 0
M  V30 18192 C 1711.41 -1.034 1.74111 0
M  V30 18193 C 1711.74 -1.87197 0.527965 0
M  V30 18194 O 1710.99 -1.89465 -0.490052 0
M  V30 18195 C 1711.29 -1.9673 2.98382 0
M  V30 18196 C 1710.96 -1.28893 4.32085 0
M  V30 18197 C 1709.62 -1.10124 4.68429 0
M  V30 18198 C 1711.97 -0.804114 5.1496 0
M  V30 18199 C 1709.3 -0.415622 5.85226 0
M  V30 18200 C 1711.65 -0.132204 6.32462 0
M  V30 18201 C 1710.31 0.0674159 6.67466 0
M  V30 18202 H 1709.58 -0.378366 0.637119 0
M  V30 18203 H 1712.23 -0.308686 1.88996 0
M  V30 18204 H 1710.54 -2.75795 2.78288 0
M  V30 18205 H 1712.23 -2.53671 3.10567 0
M  V30 18206 H 1708.82 -1.44507 4.03504 0
M  V30 18207 H 1713.01 -0.93682 4.87378 0
M  V30 18208 H 1708.26 -0.249993 6.10889 0
M  V30 18209 H 1712.44 0.251345 6.95946 0
M  V30 18210 H 1710.06 0.600691 7.57823 0
M  V30 18211 N 1711.64 -1.47227 -0.562322 0
M  V30 18212 C 1713.06 -1.32632 -0.887745 0
M  V30 18213 C 1713.26 -0.312972 -1.99055 0
M  V30 18214 O 1712.31 0.277309 -2.50973 0
M  V30 18215 C 1713.62 -2.71822 -1.28581 0
M  V30 18216 C 1715.17 -2.80068 -1.39753 0
M  V30 18217 C 1715.65 -4.19887 -1.82917 0
M  V30 18218 N 1717.14 -4.22404 -1.90077 0
M  V30 18219 C 1717.87 -5.27499 -2.24793 0
M  V30 18220 N 1717.37 -6.42904 -2.58159 0
M  V30 18221 N 1719.16 -5.14874 -2.25523 0
M  V30 18222 H 1711.31 -2.11752 0.165835 0
M  V30 18223 H 1713.58 -0.94793 0.0115238 0
M  V30 18224 H 1713.28 -3.47383 -0.549361 0
M  V30 18225 H 1713.16 -3.0326 -2.24306 0
M  V30 18226 H 1715.54 -2.04783 -2.1248 0
M  V30 18227 H 1715.62 -2.5229 -0.422286 0
M  V30 18228 H 1715.27 -4.95676 -1.10761 0
M  V30 18229 H 1715.2 -4.45086 -2.81436 0
M  V30 18230 H 1717.69 -3.39146 -1.66698 0
M  V30 18231 H 1718 -7.18857 -2.83662 0
M  V30 18232 H 1716.35 -6.46232 -2.55751 0
M  V30 18233 H 1719.54 -4.23745 -1.98892 0
M  V30 18234 H 1719.71 -5.96887 -2.5225 0
M  V30 18235 N 1713.12 0.808639 -1.35273 0
M  V30 18236 C 1714.53 1.38248 -1.25477 0
M  V30 18237 C 1714.88 1.9587 0.113715 0
M  V30 18238 O 1714 1.91141 1.0146 0
M  V30 18239 C 1714.6 2.5133 -2.27197 0
M  V30 18240 C 1713.16 3.04582 -2.21148 0
M  V30 18241 C 1712.31 1.77534 -2.13019 0
M  V30 18242 H 1715.26 0.611844 -1.46431 0
M  V30 18243 H 1715.28 3.29825 -1.89726 0
M  V30 18244 H 1714.79 2.09362 -3.26786 0
M  V30 18245 H 1712.89 3.5102 -1.24963 0
M  V30 18246 H 1713 3.62703 -3.13023 0
M  V30 18247 H 1711.37 1.99004 -1.58964 0
M  V30 18248 H 1712.15 1.3772 -3.14465 0
M  V30 18249 N 1714.6 1.19237 1.03055 0
M  V30 18250 C 1715.82 1.01917 1.80057 0
M  V30 18251 C 1716.24 -0.43214 1.83788 0
M  V30 18252 O 1715.6 -1.30016 1.28071 0
M  V30 18253 C 1715.65 1.57912 3.25186 0
M  V30 18254 O 1715.37 2.97362 3.21725 0
M  V30 18255 C 1716.87 1.45352 4.18793 0
M  V30 18256 H 1714.09 0.359301 0.566696 0
M  V30 18257 H 1716.63 1.58015 1.29814 0
M  V30 18258 H 1714.79 1.05967 3.72625 0
M  V30 18259 H 1715.2 3.23674 4.12717 0
M  V30 18260 H 1716.68 1.89313 5.18521 0
M  V30 18261 H 1717.15 0.40378 4.3734 0
M  V30 18262 H 1717.76 1.96419 3.77226 0
M  V30 18263 N 1716.07 -1.22136 0.99602 0
M  V30 18264 C 1717.32 -1.90967 0.673634 0
M  V30 18265 C 1717.65 -1.77526 -0.794654 0
M  V30 18266 O 1716.9 -1.14014 -1.59058 0
M  V30 18267 C 1717.2 -3.42259 1.02926 0
M  V30 18268 C 1716.87 -3.75891 2.49032 0
M  V30 18269 C 1715.53 -3.84781 2.88959 0
M  V30 18270 C 1717.88 -3.91799 3.43719 0
M  V30 18271 C 1715.21 -4.0702 4.22554 0
M  V30 18272 C 1717.56 -4.15543 4.76977 0
M  V30 18273 C 1716.23 -4.22658 5.1664 0
M  V30 18274 H 1715.5 -0.698798 0.2465 0
M  V30 18275 H 1718.14 -1.44836 1.25279 0
M  V30 18276 H 1716.45 -3.90066 0.368224 0
M  V30 18277 H 1718.15 -3.93774 0.757803 0
M  V30 18278 H 1714.74 -3.69556 2.17086 0
M  V30 18279 H 1718.92 -3.84306 3.14042 0
M  V30 18280 H 1714.18 -4.10756 4.52868 0
M  V30 18281 H 1718.35 -4.26796 5.50289 0
M  V30 18282 H 1715.98 -4.39643 6.20176 0
M  V30 18283 N 1717.55 -0.769612 -1.37531 0
M  V30 18284 C 1718.46 -0.15514 -2.34086 0
M  V30 18285 C 1719.48 0.682108 -1.60073 0
M  V30 18286 O 1720.65 0.602527 -1.92176 0
M  V30 18287 C 1717.72 0.715344 -3.3924 0
M  V30 18288 C 1716.78 -0.138116 -4.29078 0
M  V30 18289 C 1716.01 0.690916 -5.29209 0
M  V30 18290 O 1716.24 1.92812 -5.36824 0
M  V30 18291 O 1715.17 0.101247 -6.01815 0
M  V30 18292 H 1719 -0.952968 -2.88361 0
M  V30 18293 H 1716.58 -0.530738 -1.39655 0
M  V30 18294 H 1718.46 1.21236 -4.03584 0
M  V30 18295 H 1717.14 1.4914 -2.87296 0
M  V30 18296 H 1716.05 -0.681443 -3.67841 0
M  V30 18297 H 1717.38 -0.877202 -4.8432 0
M  V30 18298 N 1719.03 1.48775 -0.519977 0
M  V30 18299 C 1719.98 2.31123 0.261738 0
M  V30 18300 C 1720.97 1.40595 0.94496 0
M  V30 18301 O 1722.18 1.57552 0.870484 0
M  V30 18302 H 1718.55 0.744875 0.103272 0
M  V30 18303 H 1720.52 2.94949 -0.452514 0
M  V30 18304 C 1719.27 3.22409 1.30184 0
M  V30 18305 H 1718.6 3.92007 0.785524 0
M  V30 18306 H 1720.04 3.82932 1.82042 0
M  V30 18307 C 1718.5 2.43321 2.33016 0
M  V30 18308 O 1719.03 2.15087 3.39265 0
M  V30 18309 N 1717.23 2.04998 2.05971 0
M  V30 18310 H 1716.78 2.2816 1.19586 0
M  V30 18311 H 1716.74 1.52393 2.74998 0
M  V30 18312 N 1720.51 0.254649 1.55529 0
M  V30 18313 C 1721.44 -0.635656 2.24681 0
M  V30 18314 C 1722.42 -1.17519 1.22977 0
M  V30 18315 O 1723.6 -1.21311 1.51649 0
M  V30 18316 C 1720.73 -1.82922 2.95224 0
M  V30 18317 C 1719.69 -1.42212 4.03683 0
M  V30 18318 C 1719.01 -2.69713 4.61691 0
M  V30 18319 C 1720.31 -0.587436 5.18986 0
M  V30 18320 H 1722.01 -0.0590063 2.99342 0
M  V30 18321 H 1719.55 -0.02694 1.43975 0
M  V30 18322 H 1721.51 -2.45777 3.42304 0
M  V30 18323 H 1720.23 -2.43137 2.18064 0
M  V30 18324 H 1718.89 -0.81687 3.57383 0
M  V30 18325 H 1718.54 -3.28143 3.81223 0
M  V30 18326 H 1718.24 -2.43194 5.34911 0
M  V30 18327 H 1719.76 -3.33453 5.11509 0
M  V30 18328 H 1721.18 -1.12048 5.62244 0
M  V30 18329 H 1719.57 -0.417988 5.98643 0
M  V30 18330 H 1720.64 0.398577 4.83259 0
M  V30 18331 N 1721.99 -1.57589 -0.0183649 0
M  V30 18332 C 1723.24 -1.88937 -0.706105 0
M  V30 18333 C 1723.55 -0.854565 -1.75945 0
M  V30 18334 O 1724.75 -1.05763 -2.50053 0
M  V30 18335 C 1723.21 -3.35329 -1.307 0
M  V30 18336 C 1722.82 -4.47064 -0.289444 0
M  V30 18337 C 1724.56 -3.75811 -1.97399 0
M  V30 18338 C 1722.47 -5.84523 -0.899288 0
M  V30 18339 H 1721.4 -0.704959 -0.267486 0
M  V30 18340 H 1724.05 -1.83458 0.0391685 0
M  V30 18341 H 1722.43 -3.35586 -2.10233 0
M  V30 18342 H 1723.61 -4.58294 0.479958 0
M  V30 18343 H 1721.92 -4.15484 0.276066 0
M  V30 18344 H 1724.52 -4.75834 -2.43898 0
M  V30 18345 H 1724.86 -3.08362 -2.79676 0
M  V30 18346 H 1725.39 -3.77774 -1.24626 0
M  V30 18347 H 1722.13 -6.55398 -0.11571 0
M  V30 18348 H 1721.65 -5.76993 -1.63828 0
M  V30 18349 H 1723.33 -6.31595 -1.40344 0
M  V30 18350 N 1723.46 0.290824 -1.54893 0
M  V30 18351 C 1724.88 0.86313 -1.6555 0
M  V30 18352 C 1725.23 1.87713 -0.570806 0
M  V30 18353 O 1724.35 2.14437 0.290826 0
M  V30 18354 C 1724.95 1.57231 -3.00107 0
M  V30 18355 C 1723.51 2.09288 -3.1285 0
M  V30 18356 C 1722.65 0.928933 -2.61278 0
M  V30 18357 H 1725.6 0.0675807 -1.58556 0
M  V30 18358 H 1725.62 2.43841 -2.92099 0
M  V30 18359 H 1725.14 0.834055 -3.79032 0
M  V30 18360 H 1723.24 2.86129 -2.38665 0
M  V30 18361 H 1723.35 2.32042 -4.19158 0
M  V30 18362 H 1721.71 1.31735 -2.17986 0
M  V30 18363 H 1722.5 0.204475 -3.42691 0
M  V30 18364 N 1724.94 1.47523 0.554506 0
M  V30 18365 C 1726.19 1.53546 1.30791 0
M  V30 18366 C 1726.5 0.203555 1.94538 0
M  V30 18367 O 1727.71 0.14181 2.71129 0
M  V30 18368 C 1726.17 2.70684 2.37188 0
M  V30 18369 C 1725.77 4.10415 1.7962 0
M  V30 18370 C 1727.52 2.86002 3.13693 0
M  V30 18371 C 1725.43 5.18849 2.83813 0
M  V30 18372 H 1724.36 0.571539 0.491792 0
M  V30 18373 H 1727.01 1.73803 0.58861 0
M  V30 18374 H 1725.39 2.43812 3.12045 0
M  V30 18375 H 1726.56 4.47202 1.11117 0
M  V30 18376 H 1724.88 4.00006 1.15691 0
M  V30 18377 H 1727.47 3.64181 3.91505 0
M  V30 18378 H 1727.82 1.94545 3.68046 0
M  V30 18379 H 1728.35 3.12657 2.45948 0
M  V30 18380 H 1725.09 6.12192 2.34311 0
M  V30 18381 H 1724.61 4.86577 3.50718 0
M  V30 18382 H 1726.29 5.45915 3.47255 0
M  V30 18383 N 1726.42 -0.801453 1.357 0
M  V30 18384 C 1727.35 -1.92807 1.31711 0
M  V30 18385 C 1728.33 -1.69028 0.190642 0
M  V30 18386 O 1729.52 -1.90317 0.38641 0
M  V30 18387 C 1726.65 -3.29635 1.09352 0
M  V30 18388 C 1725.6 -3.67908 2.18695 0
M  V30 18389 C 1724.93 -5.02955 1.81494 0
M  V30 18390 C 1726.23 -3.77749 3.60698 0
M  V30 18391 H 1727.92 -1.96401 2.2598 0
M  V30 18392 H 1725.47 -0.943528 1.08782 0
M  V30 18393 H 1727.42 -4.08058 1.052 0
M  V30 18394 H 1726.14 -3.26396 0.115306 0
M  V30 18395 H 1724.8 -2.91775 2.21952 0
M  V30 18396 H 1724.45 -4.96225 0.822776 0
M  V30 18397 H 1724.15 -5.29533 2.54692 0
M  V30 18398 H 1725.67 -5.83811 1.78876 0
M  V30 18399 H 1727.09 -4.4639 3.59734 0
M  V30 18400 H 1725.49 -4.15801 4.327 0
M  V30 18401 H 1726.56 -2.79167 3.96477 0
M  V30 18402 N 1727.9 -1.19782 -1.02421 0
M  V30 18403 C 1728.85 -0.93978 -2.108 0
M  V30 18404 C 1729.82 0.12716 -1.65613 0
M  V30 18405 O 1731 -0.0159669 -1.90793 0
M  V30 18406 C 1728.14 -0.489656 -3.41609 0
M  V30 18407 C 1727.25 -1.62389 -4.00317 0
M  V30 18408 C 1726.39 -1.12483 -5.19154 0
M  V30 18409 C 1725.43 -2.23266 -5.69929 0
M  V30 18410 N 1724.56 -1.74633 -6.80035 0
M  V30 18411 H 1729.4 -1.8677 -2.32209 0
M  V30 18412 H 1726.94 -0.931082 -1.13883 0
M  V30 18413 H 1728.9 -0.210049 -4.16671 0
M  V30 18414 H 1727.53 0.40127 -3.20296 0
M  V30 18415 H 1726.58 -2.0186 -3.22423 0
M  V30 18416 H 1727.89 -2.45836 -4.34011 0
M  V30 18417 H 1727.05 -0.800737 -6.01393 0
M  V30 18418 H 1725.79 -0.260155 -4.87006 0
M  V30 18419 H 1724.79 -2.56501 -4.863 0
M  V30 18420 H 1726.02 -3.10197 -6.04115 0
M  V30 18421 H 1723.96 -0.904804 -6.4973 0
M  V30 18422 H 1723.88 -2.51666 -7.12882 0
M  V30 18423 H 1725.15 -1.45201 -7.65857 0
M  V30 18424 N 1729.38 1.21606 -1.00248 0
M  V30 18425 C 1730.61 1.94609 -0.702502 0
M  V30 18426 C 1731.02 1.73928 0.734483 0
M  V30 18427 O 1730.38 1.04432 1.49667 0
M  V30 18428 C 1730.43 3.47077 -1.01092 0
M  V30 18429 O 1730.15 3.67071 -2.39145 0
M  V30 18430 C 1731.65 4.37248 -0.729988 0
M  V30 18431 H 1728.87 0.618962 -0.259088 0
M  V30 18432 H 1731.41 1.54494 -1.33985 0
M  V30 18433 H 1729.57 3.85125 -0.419215 0
M  V30 18434 H 1729.98 4.61188 -2.49811 0
M  V30 18435 H 1731.46 5.4294 -0.99598 0
M  V30 18436 H 1731.93 4.37913 0.33599 0
M  V30 18437 H 1732.54 4.04842 -1.30318 0
M  V30 18438 N 1730.86 0.776895 1.37121 0
M  V30 18439 C 1732.1 0.344063 1.9986 0
M  V30 18440 C 1732.43 -1.07806 1.61529 0
M  V30 18441 O 1731.71 -1.74258 0.863963 0
M  V30 18442 C 1731.99 0.493512 3.56702 0
M  V30 18443 C 1731.85 1.95842 4.04927 0
M  V30 18444 C 1733.16 -0.099097 4.39988 0
M  V30 18445 H 1730.28 0.126489 0.726064 0
M  V30 18446 H 1732.93 0.980899 1.62722 0
M  V30 18447 H 1731.08 -0.0486344 3.8847 0
M  V30 18448 H 1732.75 2.56067 3.83702 0
M  V30 18449 H 1730.99 2.46544 3.56929 0
M  V30 18450 H 1731.66 2.01402 5.13947 0
M  V30 18451 H 1734.14 0.363545 4.14509 0
M  V30 18452 H 1733.01 0.0355748 5.48888 0
M  V30 18453 H 1733.27 -1.18995 4.25785 0
M  V30 18454 N 1732.33 -1.48497 0.527859 0
M  V30 18455 C 1733.28 -2.2656 -0.255874 0
M  V30 18456 C 1734.27 -1.32572 -0.911777 0
M  V30 18457 O 1735.46 -1.57124 -0.814934 0
M  V30 18458 C 1732.59 -3.17591 -1.30348 0
M  V30 18459 C 1731.67 -4.19051 -0.652474 0
M  V30 18460 N 1732.07 -5.05128 0.260561 0
M  V30 18461 C 1730.36 -4.36619 -0.909929 0
M  V30 18462 C 1731.06 -5.78214 0.635906 0
M  V30 18463 N 1730.04 -5.436 -0.00251422 0
M  V30 18464 H 1733.84 -2.90487 0.446571 0
M  V30 18465 H 1731.36 -1.58677 0.345742 0
M  V30 18466 H 1733.35 -3.72173 -1.87865 0
M  V30 18467 H 1732.01 -2.55219 -2.00733 0
M  V30 18468 H 1733.02 -5.14017 0.633035 0
M  V30 18469 H 1729.7 -3.85437 -1.6045 0
M  V30 18470 H 1731.09 -6.57482 1.38446 0
M  V30 18471 N 1733.81 -0.262893 -1.55392 0
M  V30 18472 C 1734.72 0.640223 -2.25695 0
M  V30 18473 C 1735.74 1.18019 -1.27857 0
M  V30 18474 O 1736.91 1.21308 -1.60768 0
M  V30 18475 C 1733.98 1.81336 -2.95497 0
M  V30 18476 C 1733.04 1.31128 -4.08784 0
M  V30 18477 C 1732.27 2.4285 -4.75247 0
M  V30 18478 O 1732.5 3.61939 -4.40859 0
M  V30 18479 O 1731.43 2.11699 -5.63442 0
M  V30 18480 H 1735.26 0.0710781 -3.03617 0
M  V30 18481 H 1732.84 -0.030765 -1.49368 0
M  V30 18482 H 1734.72 2.49764 -3.39406 0
M  V30 18483 H 1733.4 2.36982 -2.20502 0
M  V30 18484 H 1732.3 0.593816 -3.69357 0
M  V30 18485 H 1733.64 0.800711 -4.85643 0
M  V30 18486 N 1735.29 1.57597 0.0100073 0
M  V30 18487 C 1736.24 2.07788 1.00463 0
M  V30 18488 C 1737.21 0.971101 1.34755 0
M  V30 18489 O 1738.39 1.2429 1.44764 0
M  V30 18490 C 1735.53 2.57769 2.29454 0
M  V30 18491 C 1734.64 3.8231 2.01153 0
M  V30 18492 C 1733.78 4.2083 3.24154 0
M  V30 18493 C 1732.82 5.38236 2.91494 0
M  V30 18494 N 1731.96 5.72096 4.07001 0
M  V30 18495 H 1736.8 2.92504 0.569675 0
M  V30 18496 H 1734.33 1.44607 0.269645 0
M  V30 18497 H 1736.29 2.84821 3.04849 0
M  V30 18498 H 1734.92 1.75942 2.70637 0
M  V30 18499 H 1733.97 3.62227 1.16171 0
M  V30 18500 H 1735.28 4.67811 1.73074 0
M  V30 18501 H 1734.44 4.49111 4.07902 0
M  V30 18502 H 1733.18 3.34019 3.55363 0
M  V30 18503 H 1732.18 5.09688 2.06151 0
M  V30 18504 H 1733.41 6.26716 2.61543 0
M  V30 18505 H 1731.35 4.88243 4.38126 0
M  V30 18506 H 1731.27 6.52148 3.82411 0
M  V30 18507 H 1732.54 6.04964 4.91567 0
M  V30 18508 N 1736.77 -0.282606 1.55045 0
M  V30 18509 C 1738 -1.03245 1.78952 0
M  V30 18510 C 1738.41 -1.80777 0.558225 0
M  V30 18511 O 1737.75 -1.77264 -0.482009 0
M  V30 18512 C 1737.81 -2.04557 2.95629 0
M  V30 18513 C 1737.47 -1.46051 4.33034 0
M  V30 18514 C 1738.47 -0.881083 5.1238 0
M  V30 18515 C 1736.16 -1.4906 4.79673 0
M  V30 18516 C 1738.15 -0.339532 6.36495 0
M  V30 18517 C 1735.84 -0.945189 6.03746 0
M  V30 18518 C 1736.84 -0.370643 6.81994 0
M  V30 18519 O 1736.52 0.166447 8.03728 0
M  V30 18520 H 1736.26 -0.311139 0.60014 0
M  V30 18521 H 1738.81 -0.32175 2.02864 0
M  V30 18522 H 1737.04 -2.79359 2.67386 0
M  V30 18523 H 1738.73 -2.65592 3.06946 0
M  V30 18524 H 1739.49 -0.850602 4.77483 0
M  V30 18525 H 1735.37 -1.92719 4.18784 0
M  V30 18526 H 1738.92 0.109564 6.97514 0
M  V30 18527 H 1734.81 -0.972878 6.38126 0
M  V30 18528 H 1735.58 0.054892 8.18482 0
M  V30 18529 N 1738.25 -1.47815 -0.546675 0
M  V30 18530 C 1739.18 -1.57161 -1.66832 0
M  V30 18531 C 1740.19 -0.457035 -1.56253 0
M  V30 18532 O 1741.38 -0.727134 -1.63018 0
M  V30 18533 C 1738.48 -1.4697 -3.05374 0
M  V30 18534 C 1737.65 -2.7318 -3.41602 0
M  V30 18535 C 1736.71 -2.56676 -4.59351 0
M  V30 18536 O 1735.74 -3.30521 -4.63405 0
M  V30 18537 N 1736.94 -1.65194 -5.56499 0
M  V30 18538 H 1739.7 -2.53885 -1.59257 0
M  V30 18539 H 1737.27 -1.44328 -0.733565 0
M  V30 18540 H 1739.26 -1.33649 -3.81995 0
M  V30 18541 H 1737.83 -0.582878 -3.07118 0
M  V30 18542 H 1737.05 -3.01186 -2.54323 0
M  V30 18543 H 1738.34 -3.56945 -3.62585 0
M  V30 18544 H 1737.73 -1.04369 -5.55989 0
M  V30 18545 H 1736.29 -1.57819 -6.32405 0
M  V30 18546 N 1739.72 0.794246 -1.36123 0
M  V30 18547 C 1740.97 1.54885 -1.29827 0
M  V30 18548 C 1741.29 1.94608 0.123517 0
M  V30 18549 O 1740.56 1.6457 1.06272 0
M  V30 18550 H 1739.14 0.574398 -0.477573 0
M  V30 18551 H 1741.8 0.946658 -1.70365 0
M  V30 18552 H 1740.9 2.45863 -1.92244 0
M  V30 18553 N 1741.2 1.20323 1.01785 0
M  V30 18554 C 1742.13 0.908716 2.10416 0
M  V30 18555 C 1743.15 -0.103029 1.62474 0
M  V30 18556 O 1744.34 0.127825 1.78042 0
M  V30 18557 C 1741.44 0.340601 3.37184 0
M  V30 18558 C 1740.61 1.40358 4.14268 0
M  V30 18559 C 1739.67 0.847016 5.19338 0
M  V30 18560 O 1738.69 1.5274 5.48324 0
M  V30 18561 N 1739.9 -0.344198 5.79479 0
M  V30 18562 H 1742.66 1.84383 2.36269 0
M  V30 18563 H 1740.22 1.10673 1.18165 0
M  V30 18564 H 1742.21 -0.0458443 4.04674 0
M  V30 18565 H 1740.78 -0.499042 3.08591 0
M  V30 18566 H 1740 1.96442 3.41766 0
M  V30 18567 H 1741.29 2.11952 4.62551 0
M  V30 18568 H 1740.69 -0.914263 5.58263 0
M  V30 18569 H 1739.25 -0.672296 6.48324 0
M  V30 18570 N 1742.68 -1.21073 1.00892 0
M  V30 18571 C 1743.64 -2.21804 0.577543 0
M  V30 18572 C 1744.64 -1.56985 -0.348201 0
M  V30 18573 O 1745.83 -1.73653 -0.137947 0
M  V30 18574 C 1742.96 -3.40535 -0.157685 0
M  V30 18575 H 1744.16 -2.61483 1.46856 0
M  V30 18576 H 1741.71 -1.34402 0.79786 0
M  V30 18577 H 1742.45 -3.0635 -1.06397 0
M  V30 18578 H 1742.23 -3.88805 0.507238 0
M  V30 18579 H 1743.72 -4.152 -0.447109 0
M  V30 18580 N 1744.16 -0.784156 -1.36707 0
M  V30 18581 C 1745.57 -0.417967 -1.81961 0
M  V30 18582 C 1745.92 1.05746 -1.65264 0
M  V30 18583 O 1745.05 1.82003 -1.17064 0
M  V30 18584 C 1745.64 -0.751869 -3.30352 0
M  V30 18585 C 1744.2 -0.438578 -3.73836 0
M  V30 18586 C 1743.35 -0.989262 -2.59054 0
M  V30 18587 H 1746.3 -0.977754 -1.25003 0
M  V30 18588 H 1746.32 -0.041034 -3.80478 0
M  V30 18589 H 1745.83 -1.82576 -3.42473 0
M  V30 18590 H 1743.93 0.627493 -3.67278 0
M  V30 18591 H 1744.04 -0.955508 -4.69475 0
M  V30 18592 H 1742.41 -0.412783 -2.51333 0
M  V30 18593 H 1743.19 -2.06881 -2.73962 0
M  V30 18594 N 1745.64 1.48215 -0.535727 0
M  V30 18595 C 1746.86 2.07399 -0.00589172 0
M  V30 18596 C 1747.29 1.38886 1.26856 0
M  V30 18597 O 1746.64 0.456684 1.75454 0
M  V30 18598 C 1746.69 3.60071 0.195203 0
M  V30 18599 O 1745.8 3.92596 1.26261 0
M  V30 18600 H 1745.14 0.662689 -0.0416988 0
M  V30 18601 H 1747.67 1.90543 -0.745281 0
M  V30 18602 H 1747.68 4.05873 0.416085 0
M  V30 18603 H 1746.35 4.0934 -0.735747 0
M  V30 18604 H 1744.93 3.58567 1.02393 0
M  V30 18605 N 1747.11 0.27113 1.5525 0
M  V30 18606 C 1748.36 -0.347304 1.99804 0
M  V30 18607 C 1748.69 -1.55803 1.15928 0
M  V30 18608 O 1747.97 -1.93154 0.228386 0
M  V30 18609 C 1748.25 -0.733408 3.52552 0
M  V30 18610 C 1748.1 0.48438 4.47184 0
M  V30 18611 C 1749.42 -1.57136 4.11092 0
M  V30 18612 H 1746.54 -0.124762 0.726363 0
M  V30 18613 H 1749.18 0.37728 1.86217 0
M  V30 18614 H 1747.33 -1.35076 3.64262 0
M  V30 18615 H 1749.01 1.12293 4.47424 0
M  V30 18616 H 1747.25 1.12317 4.19008 0
M  V30 18617 H 1747.92 0.170525 5.51737 0
M  V30 18618 H 1750.4 -1.05001 4.02634 0
M  V30 18619 H 1749.27 -1.81033 5.18187 0
M  V30 18620 H 1749.53 -2.55111 3.61069 0
M  V30 18621 N 1748.59 -1.576 -0.00164943 0
M  V30 18622 C 1749.84 -1.90496 -0.686842 0
M  V30 18623 C 1750.17 -0.871747 -1.7387 0
M  V30 18624 O 1749.42 0.123698 -1.95309 0
M  V30 18625 C 1749.72 -3.30147 -1.36886 0
M  V30 18626 C 1749.39 -4.48645 -0.450358 0
M  V30 18627 C 1748.05 -4.80795 -0.197461 0
M  V30 18628 C 1750.4 -5.20882 0.18214 0
M  V30 18629 C 1747.73 -5.82554 0.696255 0
M  V30 18630 C 1750.08 -6.23593 1.06372 0
M  V30 18631 C 1748.75 -6.54201 1.32581 0
M  V30 18632 H 1748.02 -0.697074 -0.251333 0
M  V30 18633 H 1750.66 -1.91425 0.0535238 0
M  V30 18634 H 1748.97 -3.25334 -2.18323 0
M  V30 18635 H 1750.66 -3.52859 -1.90504 0
M  V30 18636 H 1747.25 -4.23525 -0.657635 0
M  V30 18637 H 1751.44 -4.963 -0.000231234 0
M  V30 18638 H 1746.69 -6.0463 0.907337 0
M  V30 18639 H 1750.87 -6.78698 1.56018 0
M  V30 18640 H 1748.5 -7.3287 2.02002 0
M  V30 18641 N 1750.07 0.274379 -1.55193 0
M  V30 18642 C 1751.3 1.02871 -1.8009 0
M  V30 18643 C 1751.72 1.79202 -0.571676 0
M  V30 18644 O 1751.08 1.74867 0.478679 0
M  V30 18645 C 1751.13 1.96406 -3.02418 0
M  V30 18646 O 1750.23 3.05154 -2.77408 0
M  V30 18647 H 1749.57 0.294181 -0.595276 0
M  V30 18648 H 1752.1 0.303708 -2.02333 0
M  V30 18649 H 1752.11 2.38385 -3.31114 0
M  V30 18650 H 1750.79 1.40261 -3.91535 0
M  V30 18651 H 1749.36 2.675 -2.59805 0
M  V30 18652 N 1751.55 1.48103 0.538828 0
M  V30 18653 C 1752.79 1.559 1.29704 0
M  V30 18654 C 1753.13 0.228359 1.92853 0
M  V30 18655 O 1752.4 -0.764825 1.78831 0
M  V30 18656 C 1752.69 2.69072 2.39316 0
M  V30 18657 C 1752.54 4.11812 1.80916 0
M  V30 18658 C 1753.86 2.78051 3.41138 0
M  V30 18659 H 1750.98 0.5675 0.470226 0
M  V30 18660 H 1753.62 1.80239 0.601163 0
M  V30 18661 H 1751.77 2.4845 2.98672 0
M  V30 18662 H 1753.44 4.4385 1.25679 0
M  V30 18663 H 1751.68 4.19227 1.11494 0
M  V30 18664 H 1752.35 4.86805 2.6024 0
M  V30 18665 H 1754.83 2.96707 2.91726 0
M  V30 18666 H 1753.71 3.58982 4.15239 0
M  V30 18667 H 1753.97 1.85849 4.01139 0
M  V30 18668 N 1753.03 -0.787016 1.36542 0
M  V30 18669 C 1754.27 -1.55817 1.3229 0
M  V30 18670 C 1754.63 -1.91759 -0.0961159 0
M  V30 18671 O 1755.83 -2.67508 -0.26322 0
M  V30 18672 C 1754.1 -2.79934 2.22198 0
M  V30 18673 S 1755.66 -3.70154 2.35651 0
M  V30 18674 H 1752.48 -0.533633 0.469847 0
M  V30 18675 H 1755.08 -0.926755 1.72138 0
M  V30 18676 H 1753.79 -2.51583 3.24244 0
M  V30 18677 H 1753.32 -3.48046 1.83378 0
M  V30 18678 H 1755.33 -4.71179 1.55579 0
M  V30 18679 O 1754.54 -1.32273 -0.926612 0
M  V30 18680 H 1755.23 -1.1501 -1.5586 0
M  V30 END ATOM
M  V30 BEGIN BOND
M  V30 END BOND
M  V30 END CTAB
M  END
$$$$
