drugbank_target|P00720 Endolysin (DB00373; DB00536; DB01932; DB01957; DB01986; DB02210; DB02403; DB02486; DB02534; DB02870; DB02970; DB03238; DB03301; DB03345; DB03660; DB03669; DB03842; DB04179; DB04532; DB06934; DB07543; DB08456)
 OpenBabel12092119503D

  0  0  0     0  0            999 V3000
M  V30 BEGIN CTAB
M  V30 COUNTS 2655 2675 0 0 0
M  V30 BEGIN ATOM
M  V30 1 H -0.908 1.98254 -0.117106 0
M  V30 2 N 0 1.576 0 0
M  V30 3 C 0.933 2.03868 1.02534 0
M  V30 4 C 1.911 0.928543 1.3348 0
M  V30 5 O 3.095 1.19667 1.45644 0
M  V30 6 C 0.222 2.43627 2.35294 0
M  V30 7 C -0.732 3.65373 2.2001 0
M  V30 8 S 0.101 5.13292 1.52614 0
M  V30 9 C 1.257 5.56322 2.86805 0
M  V30 10 H 1.49 2.90518 0.631377 0
M  V30 11 H -0.977 1.52953 0.210867 0
M  V30 12 H 0.981 2.67203 3.11629 0
M  V30 13 H -0.358 1.57376 2.7183 0
M  V30 14 H -1.165 3.90944 3.18086 0
M  V30 15 H -1.563 3.418 1.51819 0
M  V30 16 H 0.729 5.58782 3.83104 0
M  V30 17 H 1.672 6.56266 2.65933 0
M  V30 18 H 2.08 4.83886 2.90714 0
M  V30 19 N 1.4781 -0.272755 1.55222 0
M  V30 20 C 2.4261 -1.35705 1.88909 0
M  V30 21 C 3.4201 -1.5112 0.765456 0
M  V30 22 O 4.6261 -1.52901 0.949802 0
M  V30 23 H 1.0011 -0.453868 0.59959 0
M  V30 24 H 2.9721 -1.04544 2.79487 0
M  V30 25 C 1.7211 -2.71049 2.17779 0
M  V30 26 H 1.0441 -2.59979 3.03728 0
M  V30 27 H 2.4841 -3.45858 2.45272 0
M  V30 28 C 0.9431 -3.22165 0.985473 0
M  V30 29 O 1.4731 -4.01096 0.220233 0
M  V30 30 N -0.3209 -2.7985 0.783108 0
M  V30 31 H -0.7739 -2.15775 1.40708 0
M  V30 32 H -0.8159 -3.14397 -0.0130392 0
M  V30 33 N 2.9562 -1.48159 -0.537278 0
M  V30 34 C 4.2052 -1.5506 -1.28993 0
M  V30 35 C 4.5182 -0.226211 -1.94288 0
M  V30 36 O 5.7242 -0.173395 -2.70946 0
M  V30 37 C 4.1802 -2.73429 -2.34018 0
M  V30 38 C 3.7882 -4.1248 -1.74825 0
M  V30 39 C 5.5322 -2.89638 -3.10339 0
M  V30 40 C 3.4392 -5.22121 -2.77747 0
M  V30 41 H 2.3692 -0.577231 -0.485098 0
M  V30 42 H 5.0202 -1.74478 -0.568317 0
M  V30 43 H 3.4022 -2.47431 -3.09182 0
M  V30 44 H 4.5762 -4.48466 -1.05899 0
M  V30 45 H 2.8912 -4.01327 -1.11022 0
M  V30 46 H 5.4882 -3.68718 -3.87235 0
M  V30 47 H 5.8312 -1.9882 -3.65754 0
M  V30 48 H 6.3642 -3.15502 -2.42288 0
M  V30 49 H 3.1032 -6.1488 -2.27161 0
M  V30 50 H 2.6232 -4.90631 -3.45024 0
M  V30 51 H 4.3022 -5.49924 -3.4087 0
M  V30 52 N 4.4343 0.785586 -1.36625 0
M  V30 53 C 5.6813 1.54362 -1.31067 0
M  V30 54 C 6.0093 1.94195 0.10893 0
M  V30 55 O 5.2643 1.63262 1.07908 0
M  V30 56 C 5.5633 2.83007 -2.1827 0
M  V30 57 C 5.2293 2.62294 -3.6676 0
M  V30 58 C 3.8913 2.56353 -4.0723 0
M  V30 59 C 6.2433 2.43371 -4.6089 0
M  V30 60 C 3.5713 2.29461 -5.39967 0
M  V30 61 C 5.9233 2.18005 -5.93849 0
M  V30 62 C 4.5873 2.105 -6.3344 0
M  V30 63 H 3.8573 0.564851 -0.479609 0
M  V30 64 H 6.5043 0.906028 -1.68711 0
M  V30 65 H 4.8093 3.51253 -1.73576 0
M  V30 66 H 6.5063 3.40817 -2.11292 0
M  V30 67 H 3.0963 2.67774 -3.34656 0
M  V30 68 H 7.2803 2.46959 -4.30494 0
M  V30 69 H 2.5363 2.22135 -5.69619 0
M  V30 70 H 6.7103 2.02359 -6.66351 0
M  V30 71 H 4.3373 1.89425 -7.36222 0
M  V30 72 N 5.9124 1.20967 1.01018 0
M  V30 73 C 6.8224 0.980157 2.13143 0
M  V30 74 C 7.8384 -0.0660665 1.73875 0
M  V30 75 O 9.0144 0.122821 2.01025 0
M  V30 76 C 6.0794 0.54216 3.42435 0
M  V30 77 C 5.1404 1.65999 3.95908 0
M  V30 78 C 4.3734 1.2428 5.19028 0
M  V30 79 O 4.5964 0.114196 5.70286 0
M  V30 80 O 3.5304 2.05271 5.65816 0
M  V30 81 H 7.3564 1.91913 2.35379 0
M  V30 82 H 4.9414 0.994099 1.11526 0
M  V30 83 H 6.8234 0.30744 4.20277 0
M  V30 84 H 5.4984 -0.36815 3.216 0
M  V30 85 H 4.4054 1.94906 3.19316 0
M  V30 86 H 5.7384 2.54753 4.21143 0
M  V30 87 N 7.3905 -1.2043 1.01659 0
M  V30 88 C 8.3235 -2.21924 0.531521 0
M  V30 89 C 9.3015 -1.57054 -0.421032 0
M  V30 90 O 10.4855 -1.85389 -0.341035 0
M  V30 91 C 7.6125 -3.37942 -0.226496 0
M  V30 92 C 6.6585 -4.21115 0.67561 0
M  V30 93 S 7.4915 -4.90674 2.14475 0
M  V30 94 C 8.6475 -6.10113 1.3969 0
M  V30 95 H 8.8805 -2.62725 1.3915 0
M  V30 96 H 6.4135 -1.30481 0.825479 0
M  V30 97 H 8.3715 -4.05196 -0.657738 0
M  V30 98 H 7.0325 -2.956 -1.06205 0
M  V30 99 H 6.2255 -5.03918 0.091108 0
M  V30 100 H 5.8275 -3.59115 1.04463 0
M  V30 101 H 8.1195 -6.7411 0.676897 0
M  V30 102 H 9.0625 -6.73022 2.20107 0
M  V30 103 H 9.4705 -5.57283 0.899786 0
M  V30 104 N 8.8686 -0.792821 -1.36206 0
M  V30 105 C 9.7986 -0.207853 -2.32573 0
M  V30 106 C 10.7796 0.659055 -1.56813 0
M  V30 107 O 11.9646 0.592176 -1.84951 0
M  V30 108 C 9.0946 0.655449 -3.41059 0
M  V30 109 C 8.0486 -0.111842 -4.27854 0
M  V30 110 C 7.3746 0.872274 -5.27537 0
M  V30 111 C 8.6746 -1.30299 -5.05786 0
M  V30 112 H 10.3686 -1.01294 -2.81744 0
M  V30 113 H 7.9146 -0.48854 -1.3546 0
M  V30 114 H 9.8676 1.07464 -4.07467 0
M  V30 115 H 8.5916 1.49328 -2.90463 0
M  V30 116 H 7.2506 -0.512053 -3.63006 0
M  V30 117 H 6.8986 1.70523 -4.73214 0
M  V30 118 H 6.5986 0.363291 -5.86476 0
M  V30 119 H 8.1226 1.28996 -5.96818 0
M  V30 120 H 9.5366 -0.959379 -5.65216 0
M  V30 121 H 7.9336 -1.7455 -5.74154 0
M  V30 122 H 9.0036 -2.09663 -4.37229 0
M  V30 123 N 10.3467 1.47872 -0.545128 0
M  V30 124 C 11.7627 1.5829 -0.204032 0
M  V30 125 C 11.9627 1.54529 1.29317 0
M  V30 126 O 11.0187 1.44232 2.07252 0
M  V30 127 C 12.3317 2.89304 -0.819987 0
M  V30 128 C 13.8797 3.02864 -0.790105 0
M  V30 129 C 14.3547 4.3656 -1.38491 0
M  V30 130 N 15.8457 4.43165 -1.34755 0
M  V30 131 C 16.5807 5.45153 -1.77753 0
M  V30 132 N 16.0767 6.54016 -2.2855 0
M  V30 133 N 17.8697 5.36125 -1.68897 0
M  V30 134 H 10.0207 1.4856 -1.51802 0
M  V30 135 H 12.2837 0.706305 -0.632327 0
M  V30 136 H 11.9897 2.97757 -1.87173 0
M  V30 137 H 11.8637 3.75957 -0.305915 0
M  V30 138 H 14.2507 2.94014 0.252913 0
M  V30 139 H 14.3317 2.17782 -1.34181 0
M  V30 140 H 13.9757 4.46164 -2.42693 0
M  V30 141 H 13.9057 5.20353 -0.808754 0
M  V30 142 H 16.3967 3.65083 -0.975855 0
M  V30 143 H 16.7097 7.27994 -2.59314 0
M  V30 144 H 15.0547 6.54938 -2.32553 0
M  V30 145 H 18.2457 4.49975 -1.28998 0
M  V30 146 H 18.4187 6.15472 -2.02726 0
M  V30 147 N 11.8248 0.280983 1.55075 0
M  V30 148 C 13.0738 -0.334784 1.98902 0
M  V30 149 C 13.3868 -1.56534 1.17288 0
M  V30 150 O 14.5928 -2.25443 1.51287 0
M  V30 151 C 13.0488 -0.646994 3.54037 0
M  V30 152 C 12.6568 0.564085 4.44435 0
M  V30 153 C 14.4008 -1.22506 4.06439 0
M  V30 154 C 12.3078 0.226137 5.90967 0
M  V30 155 H 11.2378 -0.128866 0.742906 0
M  V30 156 H 13.8888 0.386556 1.79382 0
M  V30 157 H 12.2708 -1.42739 3.6938 0
M  V30 158 H 13.4448 1.34082 4.40861 0
M  V30 159 H 11.7598 1.0594 4.02698 0
M  V30 160 H 14.3568 -1.49182 5.13468 0
M  V30 161 H 14.6998 -2.16085 3.55827 0
M  V30 162 H 15.2328 -0.50682 3.94558 0
M  V30 163 H 11.9718 1.12996 6.45687 0
M  V30 164 H 11.4918 -0.513717 5.97596 0
M  V30 165 H 13.1708 -0.179539 6.46751 0
M  V30 166 N 13.3029 -1.57598 0.00835791 0
M  V30 167 C 14.5799 -1.82172 -0.712235 0
M  V30 168 C 14.9599 -0.887873 -1.9152 0
M  V30 169 O 14.3079 0.06146 -2.28417 0
M  V30 170 C 14.5179 -3.30875 -1.11008 0
M  V30 171 C 15.8659 -3.96826 -1.51044 0
M  V30 172 O 16.8899 -3.35248 -1.20364 0
M  V30 173 O 15.7489 -5.05318 -2.08125 0
M  V30 174 H 12.8429 -0.750435 -0.347529 0
M  V30 175 H 15.3889 -1.69665 0.0344523 0
M  V30 176 H 14.1609 -3.90481 -0.252982 0
M  V30 177 H 13.7839 -3.48412 -1.9156 0
M  V30 178 N 14.781 0.264519 -1.55364 0
M  V30 179 C 15.691 1.34902 -1.91934 0
M  V30 180 C 16.707 1.53595 -0.817593 0
M  V30 181 O 17.883 1.67558 -1.11742 0
M  V30 182 C 14.948 2.68676 -2.19121 0
M  V30 183 C 14.009 2.58657 -3.4263 0
M  V30 184 C 13.242 3.86051 -3.68511 0
M  V30 185 O 13.465 4.87126 -2.96757 0
M  V30 186 O 12.399 3.85744 -4.62045 0
M  V30 187 H 16.225 1.06883 -2.8427 0
M  V30 188 H 13.81 0.463775 -1.42019 0
M  V30 189 H 15.692 3.47759 -2.37995 0
M  V30 190 H 14.367 2.96463 -1.29966 0
M  V30 191 H 13.274 1.7792 -3.29082 0
M  V30 192 H 14.607 2.35818 -4.32031 0
M  V30 193 N 16.2591 1.48442 0.529413 0
M  V30 194 C 17.6751 1.34575 0.858004 0
M  V30 195 C 17.8751 0.3572 1.98309 0
M  V30 196 O 16.9311 -0.221379 2.51528 0
M  V30 197 C 18.2441 2.74617 1.22499 0
M  V30 198 C 19.7921 2.83109 1.33484 0
M  V30 199 C 20.2671 4.23854 1.73526 0
M  V30 200 N 21.7581 4.2653 1.80628 0
M  V30 201 C 22.4931 5.32372 2.12997 0
M  V30 202 N 21.9891 6.48491 2.43786 0
M  V30 203 N 23.7821 5.19766 2.14008 0
M  V30 204 H 15.9331 2.1133 -0.212925 0
M  V30 205 H 18.1961 0.947439 -0.0326199 0
M  V30 206 H 17.9021 3.4852 0.471905 0
M  V30 207 H 17.7761 3.08177 2.17501 0
M  V30 208 H 20.1631 2.09462 2.0787 0
M  V30 209 H 20.2441 2.53168 0.366027 0
M  V30 210 H 19.8881 4.98018 0.997013 0
M  V30 211 H 19.8181 4.5124 2.71459 0
M  V30 212 H 22.3091 3.42772 1.59108 0
M  V30 213 H 22.6221 7.24993 2.67592 0
M  V30 214 H 20.9671 6.51765 2.41304 0
M  V30 215 H 24.1581 4.28066 1.89412 0
M  V30 216 H 24.3311 6.02354 2.38902 0
M  V30 217 N 17.7372 -0.778329 1.37039 0
M  V30 218 C 18.6672 -1.90546 1.34962 0
M  V30 219 C 19.6482 -1.68681 0.219274 0
M  V30 220 O 20.8332 -1.89634 0.418624 0
M  V30 221 C 17.9632 -3.27734 1.14925 0
M  V30 222 C 16.9172 -3.64147 2.24902 0
M  V30 223 C 16.2432 -4.99806 1.89996 0
M  V30 224 C 17.5432 -3.71579 3.67051 0
M  V30 225 H 19.2372 -1.92541 2.29277 0
M  V30 226 H 16.7832 -0.924948 1.10366 0
M  V30 227 H 18.7362 -4.06215 1.12104 0
M  V30 228 H 17.4602 -3.26154 0.170631 0
M  V30 229 H 16.1192 -2.8797 2.26868 0
M  V30 230 H 15.7672 -4.94759 0.906796 0
M  V30 231 H 15.4672 -5.25139 2.63634 0
M  V30 232 H 16.9912 -5.80694 1.88749 0
M  V30 233 H 18.4052 -4.40227 3.67251 0
M  V30 234 H 16.8022 -4.08405 4.39688 0
M  V30 235 H 17.8722 -2.72404 4.01154 0
M  V30 236 N 19.2153 -1.21501 -1.00376 0
M  V30 237 C 20.6313 -0.972629 -1.26539 0
M  V30 238 C 20.8313 0.340257 -1.98606 0
M  V30 239 O 19.8873 1.06561 -2.28913 0
M  V30 240 C 21.2003 -2.16404 -2.08781 0
M  V30 241 C 22.7483 -2.20643 -2.22004 0
M  V30 242 C 23.2233 -3.39306 -3.07629 0
M  V30 243 N 24.7143 -3.39401 -3.15217 0
M  V30 244 C 25.4493 -4.27867 -3.81729 0
M  V30 245 N 24.9453 -5.26533 -4.5026 0
M  V30 246 N 26.7383 -4.15672 -3.78382 0
M  V30 247 H 18.8893 -2.05929 -0.520281 0
M  V30 248 H 21.1523 -0.901803 -0.292328 0
M  V30 249 H 20.8583 -3.11554 -1.63178 0
M  V30 250 H 20.7323 -2.15567 -3.09533 0
M  V30 251 H 23.1193 -1.26048 -2.66825 0
M  V30 252 H 23.2003 -2.25523 -1.20718 0
M  V30 253 H 22.8443 -4.34195 -2.63509 0
M  V30 254 H 22.7743 -3.31665 -4.09031 0
M  V30 255 H 25.2653 -2.67997 -2.66432 0
M  V30 256 H 25.5783 -5.90337 -4.98721 0
M  V30 257 H 23.9233 -5.30457 -4.49044 0
M  V30 258 H 27.1143 -3.3785 -3.23998 0
M  V30 259 H 27.2873 -4.84825 -4.2994 0
M  V30 260 N 20.6934 1.19889 -1.02296 0
M  V30 261 C 21.6234 2.25141 -0.619174 0
M  V30 262 C 22.6044 1.66051 0.368915 0
M  V30 263 O 23.7894 1.92546 0.252941 0
M  V30 264 C 20.9194 3.4728 0.0368783 0
M  V30 265 C 19.8734 4.19005 -0.872865 0
M  V30 266 C 19.1994 5.34637 -0.0822402 0
M  V30 267 C 20.4994 4.74452 -2.18387 0
M  V30 268 H 22.1934 2.59171 -1.49903 0
M  V30 269 H 19.7394 1.24579 -0.722222 0
M  V30 270 H 21.6924 4.20098 0.330958 0
M  V30 271 H 20.4164 3.12433 0.95149 0
M  V30 272 H 19.0754 3.48061 -1.15105 0
M  V30 273 H 18.7234 4.96034 0.83422 0
M  V30 274 H 18.4234 5.83557 -0.688149 0
M  V30 275 H 19.9474 6.10255 0.205238 0
M  V30 276 H 21.3614 5.39055 -1.95172 0
M  V30 277 H 19.7584 5.33834 -2.74119 0
M  V30 278 H 20.8284 3.92844 -2.84257 0
M  V30 279 N 22.1715 0.800033 1.35784 0
M  V30 280 C 23.1185 0.203848 2.29898 0
M  V30 281 C 24.0885 -0.658375 1.52495 0
M  V30 282 O 25.2735 -0.604832 1.8096 0
M  V30 283 C 22.4135 -0.64688 3.38983 0
M  V30 284 C 21.5265 0.235054 4.3136 0
M  V30 285 C 20.6615 -0.623054 5.27533 0
M  V30 286 C 19.7005 0.259682 6.11549 0
M  V30 287 N 18.8375 -0.558019 6.99879 0
M  V30 288 H 23.6775 1.01186 2.80295 0
M  V30 289 H 21.2145 0.51053 1.37957 0
M  V30 290 H 23.1725 -1.15521 4.00887 0
M  V30 291 H 21.8025 -1.42021 2.89879 0
M  V30 292 H 20.8545 0.861438 3.70518 0
M  V30 293 H 22.1665 0.914768 4.9034 0
M  V30 294 H 21.3205 -1.19678 5.94779 0
M  V30 295 H 20.0595 -1.33636 4.69034 0
M  V30 296 H 19.0645 0.845726 5.43256 0
M  V30 297 H 20.2895 0.970748 6.72126 0
M  V30 298 H 18.2355 -1.25542 6.43875 0
M  V30 299 H 18.1525 0.0637872 7.55973 0
M  V30 300 H 19.4205 -1.11523 7.71481 0
M  V30 301 N 23.6496 -1.47581 0.552962 0
M  V30 302 C 24.8986 -2.01684 0.0251995 0
M  V30 303 C 25.2116 -1.43317 -1.33115 0
M  V30 304 O 26.4176 -1.89057 -1.94858 0
M  V30 305 C 24.8736 -3.599 -0.00542052 0
M  V30 306 C 24.4816 -4.27257 1.34742 0
M  V30 307 C 26.2256 -4.21768 -0.4808 0
M  V30 308 C 24.1326 -5.77467 1.27614 0
M  V30 309 H 23.0626 -0.753979 0.00565033 0
M  V30 310 H 25.7136 -1.69616 0.70018 0
M  V30 311 H 24.0956 -3.88911 -0.745961 0
M  V30 312 H 25.2696 -4.09893 2.10534 0
M  V30 313 H 23.5846 -3.77358 1.76039 0
M  V30 314 H 26.1816 -5.31838 -0.55246 0
M  V30 315 H 26.5246 -3.88651 -1.49184 0
M  V30 316 H 27.0576 -3.97273 0.204752 0
M  V30 317 H 23.7966 -6.15196 2.26304 0
M  V30 318 H 23.3166 -5.9718 0.55996 0
M  V30 319 H 24.9956 -6.3959 0.976421 0
M  V30 320 N 25.1277 -0.289203 -1.54924 0
M  V30 321 C 26.3577 0.325989 -2.04012 0
M  V30 322 C 26.7657 1.48961 -1.1665 0
M  V30 323 O 26.1087 1.82794 -0.1822 0
M  V30 324 C 26.1707 0.856112 -3.49158 0
M  V30 325 C 25.8347 -0.180697 -4.56643 0
M  V30 326 C 26.8317 -1.0051 -5.10092 0
M  V30 327 C 24.5167 -0.318998 -5.01286 0
M  V30 328 C 26.5107 -1.95385 -6.06715 0
M  V30 329 C 24.1977 -1.27121 -5.97732 0
M  V30 330 C 25.1957 -2.08713 -6.50329 0
M  V30 331 O 24.8837 -3.02322 -7.44887 0
M  V30 332 H 24.6157 0.0765276 -0.671654 0
M  V30 333 H 27.1697 -0.423254 -2.00992 0
M  V30 334 H 25.3997 1.65567 -3.49463 0
M  V30 335 H 27.0887 1.38591 -3.81507 0
M  V30 336 H 27.8547 -0.90906 -4.76404 0
M  V30 337 H 23.7337 0.306108 -4.59983 0
M  V30 338 H 27.2777 -2.59111 -6.47694 0
M  V30 339 H 23.1747 -1.36801 -6.30837 0
M  V30 340 H 23.9427 -2.97165 -7.6265 0
M  V30 341 N 26.6058 1.57591 -0.0167156 0
M  V30 342 C 27.5528 2.09462 0.969251 0
M  V30 343 C 28.5228 0.99381 1.33089 0
M  V30 344 O 29.7078 1.26726 1.42636 0
M  V30 345 C 26.8478 2.61622 2.25051 0
M  V30 346 C 25.9608 3.85666 1.94642 0
M  V30 347 C 25.0958 4.26266 3.16972 0
M  V30 348 C 24.1348 5.43101 2.82326 0
M  V30 349 N 23.2718 5.78915 3.97243 0
M  V30 350 H 28.1118 2.93428 0.519997 0
M  V30 351 H 25.6488 1.45044 0.245087 0
M  V30 352 H 27.6068 2.89949 2.99976 0
M  V30 353 H 26.2368 1.80505 2.67615 0
M  V30 354 H 25.2888 3.64145 1.10013 0
M  V30 355 H 26.6008 4.70678 1.65117 0
M  V30 356 H 25.7548 4.55963 4.00228 0
M  V30 357 H 24.4938 3.39996 3.49648 0
M  V30 358 H 23.4988 5.1311 1.97479 0
M  V30 359 H 24.7238 6.3106 2.50879 0
M  V30 360 H 22.6698 4.95602 4.29785 0
M  V30 361 H 22.5868 6.58539 3.71299 0
M  V30 362 H 23.8548 6.13212 4.81239 0
M  V30 363 N 28.0839 -0.256276 1.55502 0
M  V30 364 C 29.3609 -1.00789 1.67633 0
M  V30 365 C 29.7409 -2.03706 0.553826 0
M  V30 366 O 29.0889 -2.24145 -0.443969 0
M  V30 367 C 29.2989 -1.64968 3.07549 0
M  V30 368 C 30.6469 -2.15505 3.65845 0
M  V30 369 O 31.6709 -1.74925 3.1029 0
M  V30 370 O 30.5299 -2.89986 4.63217 0
M  V30 371 H 27.6239 -0.468553 0.681459 0
M  V30 372 H 30.1699 -0.250806 1.67836 0
M  V30 373 H 28.9419 -0.904785 3.80696 0
M  V30 374 H 28.5649 -2.47321 3.11317 0
M  V30 375 N 29.562 -1.4872 -0.521534 0
M  V30 376 C 30.79 -1.60843 -1.30142 0
M  V30 377 C 31.205 -0.271897 -1.86832 0
M  V30 378 O 30.562 0.739969 -1.66825 0
M  V30 379 C 30.613 -2.66155 -2.4463 0
M  V30 380 O 30.334 -3.94623 -1.90275 0
M  V30 381 C 31.835 -2.88795 -3.36322 0
M  V30 382 H 29.055 -0.542075 -0.395468 0
M  V30 383 H 31.599 -1.94609 -0.628285 0
M  V30 384 H 29.754 -2.35224 -3.07812 0
M  V30 385 H 30.168 -4.52468 -2.65279 0
M  V30 386 H 31.642 -3.66264 -4.12983 0
M  V30 387 H 32.119 -1.97934 -3.9207 0
M  V30 388 H 32.725 -3.21063 -2.78924 0
M  V30 389 N 31.0401 0.771051 -1.3745 0
M  V30 390 C 31.9501 1.91538 -1.35464 0
M  V30 391 C 32.9661 1.72134 -0.254123 0
M  V30 392 O 34.1421 1.95358 -0.489626 0
M  V30 393 C 31.2071 3.26671 -1.16134 0
M  V30 394 C 30.2681 3.58723 -2.35831 0
M  V30 395 C 29.5011 4.87409 -2.17413 0
M  V30 396 O 29.7241 5.58506 -1.15876 0
M  V30 397 O 28.6581 5.18539 -3.05615 0
M  V30 398 H 32.4841 1.96165 -2.31847 0
M  V30 399 H 30.0691 0.9139 -1.18187 0
M  V30 400 H 31.9511 4.07499 -1.07345 0
M  V30 401 H 30.6261 3.22894 -0.228251 0
M  V30 402 H 29.5331 2.78127 -2.50192 0
M  V30 403 H 30.8661 3.67243 -3.27709 0
M  V30 404 N 32.5182 1.22032 0.997298 0
M  V30 405 C 33.7662 1.04016 1.73278 0
M  V30 406 C 34.0872 -0.426255 1.90284 0
M  V30 407 O 33.3572 -1.30694 1.45931 0
M  V30 408 H 31.9372 0.381897 0.642 0
M  V30 409 H 34.5992 1.5347 1.20137 0
M  V30 410 H 33.6952 1.51441 2.72896 0
M  V30 411 N 33.9963 -1.19345 1.0293 0
M  V30 412 C 35.2263 -1.92717 0.744563 0
M  V30 413 C 35.6343 -1.75751 -0.700579 0
M  V30 414 O 34.9773 -1.07703 -1.48815 0
M  V30 415 C 35.0393 -3.44828 1.01657 0
M  V30 416 C 34.7033 -3.85564 2.45335 0
M  V30 417 C 35.7003 -3.90286 3.43472 0
M  V30 418 C 33.3853 -4.1719 2.79746 0
M  V30 419 C 35.3793 -4.26065 4.74075 0
M  V30 420 C 33.0663 -4.52642 4.10559 0
M  V30 421 C 34.0643 -4.57054 5.07534 0
M  V30 422 O 33.7523 -4.91685 6.36004 0
M  V30 423 H 33.4843 -0.618977 0.271742 0
M  V30 424 H 36.0383 -1.52415 1.37691 0
M  V30 425 H 34.2683 -3.85314 0.327084 0
M  V30 426 H 35.9573 -3.99437 0.721427 0
M  V30 427 H 36.7233 -3.66002 3.18225 0
M  V30 428 H 32.6023 -4.1294 2.04943 0
M  V30 429 H 36.1463 -4.29423 5.49765 0
M  V30 430 H 32.0433 -4.76383 4.35579 0
M  V30 431 H 32.8113 -5.09631 6.40483 0
M  V30 432 N 35.4744 -0.807222 -1.35358 0
M  V30 433 C 36.7044 -0.399796 -2.02695 0
M  V30 434 C 37.1124 0.994176 -1.60974 0
M  V30 435 O 36.4554 1.65209 -0.803226 0
M  V30 436 C 36.5174 -0.404445 -3.57218 0
M  V30 437 C 36.1814 -1.74904 -4.22206 0
M  V30 438 C 37.1784 -2.70743 -4.4384 0
M  V30 439 C 34.8634 -2.03322 -4.5931 0
M  V30 440 C 36.8574 -3.93183 -5.01683 0
M  V30 441 C 34.5444 -3.26026 -5.16866 0
M  V30 442 C 35.5424 -4.20774 -5.37994 0
M  V30 443 O 35.2304 -5.41312 -5.94337 0
M  V30 444 H 34.9624 -0.160517 -0.656666 0
M  V30 445 H 37.5164 -1.09235 -1.73945 0
M  V30 446 H 35.7464 0.344707 -3.85161 0
M  V30 447 H 37.4354 -0.0192429 -4.05895 0
M  V30 448 H 38.2014 -2.5008 -4.15554 0
M  V30 449 H 34.0804 -1.30384 -4.42178 0
M  V30 450 H 37.6244 -4.6715 -5.1809 0
M  V30 451 H 33.5214 -3.46559 -5.44579 0
M  V30 452 H 34.2894 -5.42618 -6.12787 0
M  V30 453 N 36.9525 1.47285 -0.560781 0
M  V30 454 C 38.1805 2.06855 -0.0430262 0
M  V30 455 C 38.5955 1.41291 1.25229 0
M  V30 456 O 37.9525 0.510648 1.7521 0
M  V30 457 C 38.0035 3.61178 0.152518 0
M  V30 458 O 37.7245 4.24285 -1.0915 0
M  V30 459 C 39.2255 4.37624 0.707145 0
M  V30 460 H 36.4455 0.669319 -0.0474652 0
M  V30 461 H 38.9895 1.89237 -0.77521 0
M  V30 462 H 37.1445 3.78298 0.834843 0
M  V30 463 H 37.5585 5.16868 -0.891482 0
M  V30 464 H 39.0325 5.46271 0.793244 0
M  V30 465 H 39.5095 4.04152 1.71923 0
M  V30 466 H 40.1155 4.25257 0.0604027 0
M  V30 467 N 38.4306 0.297415 1.54768 0
M  V30 468 C 39.6796 -0.313669 1.99246 0
M  V30 469 C 39.9926 -1.55281 1.18942 0
M  V30 470 O 41.1986 -2.23825 1.5367 0
M  V30 471 C 39.6546 -0.609407 3.54703 0
M  V30 472 C 39.2626 0.611192 4.43811 0
M  V30 473 C 41.0066 -1.18188 4.07715 0
M  V30 474 C 38.9136 0.288805 5.90694 0
M  V30 475 H 37.8436 -0.120979 0.744231 0
M  V30 476 H 40.4946 0.40556 1.78962 0
M  V30 477 H 38.8766 -1.38813 3.70873 0
M  V30 478 H 40.0506 1.3875 4.39414 0
M  V30 479 H 38.3656 1.10205 4.01552 0
M  V30 480 H 40.9626 -1.43727 5.15021 0
M  V30 481 H 41.3056 -2.12299 3.58099 0
M  V30 482 H 41.8386 -0.464944 3.95074 0
M  V30 483 H 38.5776 1.19838 6.44453 0
M  V30 484 H 38.0976 -0.450305 5.98107 0
M  V30 485 H 39.7766 -0.110933 6.46905 0
M  V30 486 N 39.9087 -1.5758 0.0250728 0
M  V30 487 C 41.1567 -1.91255 -0.653151 0
M  V30 488 C 41.4777 -0.901691 -1.729 0
M  V30 489 O 40.7477 0.0573785 -1.95816 0
M  V30 490 H 39.3277 -0.705942 -0.244243 0
M  V30 491 H 41.9897 -1.94767 0.0719209 0
M  V30 492 H 41.0857 -2.91752 -1.10847 0
M  V30 493 N 41.3868 0.248026 -1.55636 0
M  V30 494 C 42.6358 0.974134 -1.76617 0
M  V30 495 C 42.9488 1.86528 -0.588796 0
M  V30 496 O 44.1548 2.62805 -0.681594 0
M  V30 497 C 42.6108 1.78213 -3.12679 0
M  V30 498 C 42.2188 0.93843 -4.38061 0
M  V30 499 C 43.9628 2.50104 -3.42999 0
M  V30 500 C 41.8698 1.74225 -5.65155 0
M  V30 501 H 40.7998 0.36745 -0.658405 0
M  V30 502 H 43.4508 0.22884 -1.82067 0
M  V30 503 H 41.8328 2.56933 -3.01333 0
M  V30 504 H 43.0068 0.193635 -4.60393 0
M  V30 505 H 41.3218 0.332905 -4.15067 0
M  V30 506 H 43.9188 3.10694 -4.3517 0
M  V30 507 H 44.2618 3.21662 -2.64271 0
M  V30 508 H 44.7948 1.78395 -3.55556 0
M  V30 509 H 41.5338 1.07043 -6.46701 0
M  V30 510 H 41.0538 2.46235 -5.46926 0
M  V30 511 H 42.7328 2.30967 -6.0437 0
M  V30 512 N 42.8649 1.48995 0.513639 0
M  V30 513 C 44.1129 1.57531 1.26604 0
M  V30 514 C 44.4339 0.258236 1.93283 0
M  V30 515 O 43.7039 -0.721502 1.8213 0
M  V30 516 H 42.2839 0.580387 0.470276 0
M  V30 517 H 44.9459 1.85552 0.596373 0
M  V30 518 H 44.0419 2.36486 2.03669 0
M  V30 519 N 44.343 -0.763751 1.37857 0
M  V30 520 C 45.293 -1.86765 1.30777 0
M  V30 521 C 46.277 -1.59726 0.194015 0
M  V30 522 O 47.469 -1.7172 0.42911 0
M  V30 523 C 44.598 -3.24343 1.12502 0
M  V30 524 C 43.684 -3.57307 2.28456 0
M  V30 525 N 44.075 -3.61398 3.53871 0
M  V30 526 C 42.373 -3.87517 2.20786 0
M  V30 527 C 43.074 -3.91339 4.30382 0
M  V30 528 N 42.05 -4.07649 3.59615 0
M  V30 529 H 45.852 -1.88191 2.25746 0
M  V30 530 H 43.366 -0.9606 1.30944 0
M  V30 531 H 45.363 -4.03327 1.05514 0
M  V30 532 H 44.023 -3.24175 0.184574 0
M  V30 533 H 45.034 -3.43407 3.87675 0
M  V30 534 H 41.711 -3.95125 1.34844 0
M  V30 535 H 43.101 -4.01213 5.3896 0
M  V30 536 N 45.8211 -1.22559 -0.990812 0
M  V30 537 C 46.7511 -1.0218 -2.09956 0
M  V30 538 C 47.7321 0.0579394 -1.70001 0
M  V30 539 O 48.9171 -0.104684 -1.93918 0
M  V30 540 C 46.0471 -0.601023 -3.4206 0
M  V30 541 C 45.0011 -1.62694 -3.95872 0
M  V30 542 C 44.3271 -1.06193 -5.24049 0
M  V30 543 C 45.6271 -3.01743 -4.2632 0
M  V30 544 H 47.3211 -1.94916 -2.27262 0
M  V30 545 H 44.8671 -0.938566 -1.09211 0
M  V30 546 H 46.8201 -0.445561 -4.19038 0
M  V30 547 H 45.5441 0.362005 -3.24588 0
M  V30 548 H 44.2031 -1.77021 -3.21028 0
M  V30 549 H 43.8511 -0.0901903 -5.02919 0
M  V30 550 H 43.5511 -1.74732 -5.61019 0
M  V30 551 H 45.0751 -0.918092 -6.03658 0
M  V30 552 H 46.4891 -2.90777 -4.94087 0
M  V30 553 H 44.8861 -3.67425 -4.74467 0
M  V30 554 H 45.9561 -3.51518 -3.34011 0
M  V30 555 N 47.2992 1.18797 -1.03562 0
M  V30 556 C 48.2292 2.24472 -0.643019 0
M  V30 557 C 49.2102 1.66433 0.351283 0
M  V30 558 O 50.3952 1.92803 0.232505 0
M  V30 559 C 47.5252 3.473 4.24935e-05 0
M  V30 560 C 46.4792 4.18055 -0.917257 0
M  V30 561 C 45.8052 5.34519 -0.138941 0
M  V30 562 C 47.1052 4.72109 -2.23407 0
M  V30 563 H 48.7992 2.57566 -1.52643 0
M  V30 564 H 46.3452 1.23806 -0.735394 0
M  V30 565 H 48.2982 4.20426 0.286383 0
M  V30 566 H 47.0222 3.13424 0.918299 0
M  V30 567 H 45.6812 3.46821 -1.1879 0
M  V30 568 H 45.3292 4.96891 0.781562 0
M  V30 569 H 45.0292 5.82794 -0.750005 0
M  V30 570 H 46.5532 6.10438 0.1405 0
M  V30 571 H 47.9672 5.36955 -2.00879 0
M  V30 572 H 46.3642 5.30897 -2.79765 0
M  V30 573 H 47.4342 3.89807 -2.88407 0
M  V30 574 N 48.7773 0.814389 1.34928 0
M  V30 575 C 50.0053 0.411136 2.02774 0
M  V30 576 C 50.4203 -0.980316 1.61354 0
M  V30 577 O 49.7773 -1.63299 0.814847 0
M  V30 578 C 49.8283 0.493865 3.58111 0
M  V30 579 O 49.5493 1.83047 3.98027 0
M  V30 580 C 51.0503 0.0844174 4.4322 0
M  V30 581 H 48.2703 0.166037 0.650133 0
M  V30 582 H 50.8143 1.10018 1.72384 0
M  V30 583 H 48.9693 -0.147006 3.87121 0
M  V30 584 H 49.3833 1.79872 4.92693 0
M  V30 585 H 50.8573 0.193404 5.51661 0
M  V30 586 H 51.3343 -0.97113 4.28329 0
M  V30 587 H 51.9403 0.69875 4.19521 0
M  V30 588 N 50.2554 -1.46986 0.568584 0
M  V30 589 C 51.2024 -2.30153 -0.172707 0
M  V30 590 C 52.1724 -1.39759 -0.897586 0
M  V30 591 O 53.3574 -1.68716 -0.891044 0
M  V30 592 C 50.4974 -3.23952 -1.1895 0
M  V30 593 C 49.6104 -4.29441 -0.469517 0
M  V30 594 C 48.7454 -5.1038 -1.47259 0
M  V30 595 C 47.7844 -6.07632 -0.738225 0
M  V30 596 N 46.9214 -6.8149 -1.68868 0
M  V30 597 H 51.7614 -2.93019 0.542596 0
M  V30 598 H 49.2984 -1.44422 0.279401 0
M  V30 599 H 51.2564 -3.76767 -1.79173 0
M  V30 600 H 49.8864 -2.62926 -1.87269 0
M  V30 601 H 48.9384 -3.79594 0.247467 0
M  V30 602 H 50.2504 -4.98689 0.105241 0
M  V30 603 H 49.4044 -5.67402 -2.14803 0
M  V30 604 H 48.1434 -4.4106 -2.08128 0
M  V30 605 H 47.1484 -5.49778 -0.0489293 0
M  V30 606 H 48.3734 -6.78966 -0.135129 0
M  V30 607 H 46.3194 -6.14891 -2.28573 0
M  V30 608 H 46.2364 -7.46948 -1.16636 0
M  V30 609 H 47.5044 -7.43078 -2.3549 0
M  V30 610 N 51.7335 -0.305618 -1.54608 0
M  V30 611 C 52.9585 0.307562 -2.05107 0
M  V30 612 C 53.3835 1.46385 -1.18123 0
M  V30 613 O 52.7415 1.8034 -0.186324 0
M  V30 614 C 52.7895 0.73704 -3.52987 0
M  V30 615 O 51.8935 1.84134 -3.6901 0
M  V30 616 H 51.2345 0.0589143 -0.661381 0
M  V30 617 H 53.7645 -0.448807 -1.99617 0
M  V30 618 H 53.7745 1.02459 -3.94925 0
M  V30 619 H 52.4495 -0.108773 -4.15758 0
M  V30 620 H 51.0265 1.55398 -3.38978 0
M  V30 621 N 53.2116 1.57565 -0.0334293 0
M  V30 622 C 54.6226 1.79746 0.504798 0
M  V30 623 C 54.9736 0.944091 1.71992 0
M  V30 624 O 54.0986 0.155694 2.15839 0
M  V30 625 C 54.6936 3.25997 0.922567 0
M  V30 626 C 53.2526 3.49159 1.40588 0
M  V30 627 C 52.3996 2.74785 0.372633 0
M  V30 628 H 55.3506 1.56565 -0.259436 0
M  V30 629 H 55.3716 3.35945 1.78666 0
M  V30 630 H 54.8836 3.88081 0.0379825 0
M  V30 631 H 52.9846 2.92332 2.31025 0
M  V30 632 H 53.0976 4.57873 1.41028 0
M  V30 633 H 51.4616 2.40391 0.841672 0
M  V30 634 H 52.2446 3.39587 -0.503559 0
M  V30 635 N 54.6897 -0.239769 1.55765 0
M  V30 636 C 55.9147 -0.988373 1.82335 0
M  V30 637 C 56.3397 -1.77886 0.611421 0
M  V30 638 O 55.6977 -1.75889 -0.439639 0
M  V30 639 C 55.7457 -1.89627 3.06715 0
M  V30 640 O 54.8497 -2.98904 2.84131 0
M  V30 641 H 54.1907 -0.280858 0.601677 0
M  V30 642 H 56.7207 -0.258597 2.02959 0
M  V30 643 H 56.7307 -2.30957 3.36338 0
M  V30 644 H 55.4057 -1.31511 3.9456 0
M  V30 645 H 53.9827 -2.61651 2.65694 0
M  V30 646 N 56.1678 -1.49265 -0.50573 0
M  V30 647 C 57.0978 -1.68495 -1.61653 0
M  V30 648 C 58.0788 -0.53366 -1.61512 0
M  V30 649 O 59.2638 -0.76897 -1.78327 0
M  V30 650 C 56.3938 -1.74709 -3.00157 0
M  V30 651 C 55.3478 -2.89581 -3.15162 0
M  V30 652 C 54.6738 -2.80903 -4.5497 0
M  V30 653 C 55.9738 -4.30578 -2.95634 0
M  V30 654 H 57.6678 -2.61493 -1.45814 0
M  V30 655 H 55.2138 -1.25838 -0.70005 0
M  V30 656 H 57.1668 -1.86748 -3.77761 0
M  V30 657 H 55.8908 -0.783067 -3.17074 0
M  V30 658 H 54.5498 -2.77136 -2.39982 0
M  V30 659 H 54.1978 -1.82419 -4.68756 0
M  V30 660 H 53.8978 -3.57999 -4.65951 0
M  V30 661 H 55.4218 -2.94944 -5.34641 0
M  V30 662 H 56.8358 -4.4373 -3.63011 0
M  V30 663 H 55.2328 -5.0886 -3.18091 0
M  V30 664 H 56.3028 -4.45352 -1.91806 0
M  V30 665 N 57.6459 0.756429 -1.3826 0
M  V30 666 C 58.5939 1.89149 -1.35372 0
M  V30 667 C 59.5879 1.67691 -0.24004 0
M  V30 668 O 60.7939 1.75294 -0.408919 0
M  V30 669 H 57.1689 0.622271 -0.422236 0
M  V30 670 H 59.1399 1.88701 -2.31159 0
M  V30 671 C 57.8889 3.26599 -1.19284 0
M  V30 672 H 57.2119 3.43695 -2.0424 0
M  V30 673 H 58.6519 4.06274 -1.21316 0
M  V30 674 C 57.1109 3.3675 0.100454 0
M  V30 675 O 57.6409 3.86951 1.07851 0
M  V30 676 N 55.8469 2.90179 0.15633 0
M  V30 677 H 55.3939 2.49517 -0.640253 0
M  V30 678 H 55.3519 2.97352 1.02123 0
M  V30 679 N 59.124 1.23083 0.984299 0
M  V30 680 C 60.087 1.00979 2.05757 0
M  V30 681 C 61.087 -0.0269573 1.60777 0
M  V30 682 O 62.277 0.212403 1.729 0
M  V30 683 C 59.409 0.527072 3.36801 0
M  V30 684 H 60.602 1.9622 2.26799 0
M  V30 685 H 58.155 1.05072 1.15714 0
M  V30 686 H 58.89 -0.429294 3.21446 0
M  V30 687 H 58.675 1.27515 3.70786 0
M  V30 688 H 60.165 0.392942 4.15747 0
M  V30 689 N 60.6021 -1.18246 1.0419 0
M  V30 690 C 61.5651 -2.20128 0.638452 0
M  V30 691 C 62.5651 -1.57885 -0.304805 0
M  V30 692 O 63.7551 -1.73967 -0.0900369 0
M  V30 693 C 60.8871 -3.4084 -0.0637751 0
M  V30 694 H 62.0801 -2.57336 1.54007 0
M  V30 695 H 59.6331 -1.32152 0.834598 0
M  V30 696 H 60.3681 -3.09166 -0.979136 0
M  V30 697 H 60.1531 -3.8726 0.614198 0
M  V30 698 H 61.6431 -4.16274 -0.332512 0
M  V30 699 N 62.0802 -0.821533 -1.34494 0
M  V30 700 C 63.0272 -0.240397 -2.29545 0
M  V30 701 C 63.9972 0.634031 -1.53523 0
M  V30 702 O 65.1822 0.575966 -1.81899 0
M  V30 703 C 62.3222 0.592869 -3.39969 0
M  V30 704 C 61.4352 -0.30365 -4.30932 0
M  V30 705 C 60.5702 0.539049 -5.28458 0
M  V30 706 C 59.6092 -0.356942 -6.11058 0
M  V30 707 N 58.7462 0.446603 -7.00678 0
M  V30 708 H 63.5862 -1.05632 -2.7865 0
M  V30 709 H 61.1232 -0.532413 -1.37127 0
M  V30 710 H 63.0812 1.09129 -4.02675 0
M  V30 711 H 61.7112 1.37392 -2.92102 0
M  V30 712 H 60.7632 -0.920276 -3.691 0
M  V30 713 H 62.0752 -0.992661 -4.88823 0
M  V30 714 H 61.2292 1.102 -5.96608 0
M  V30 715 H 59.9682 1.26157 -4.71101 0
M  V30 716 H 58.9732 -0.932047 -5.41842 0
M  V30 717 H 60.1982 -1.07755 -6.70497 0
M  V30 718 H 58.1442 1.15282 -6.45791 0
M  V30 719 H 58.0612 -0.184048 -7.55776 0
M  V30 720 H 59.3292 0.992352 -7.73158 0
M  V30 721 N 63.5583 1.46682 -0.576371 0
M  V30 722 C 64.7833 2.07304 -0.0630475 0
M  V30 723 C 65.2083 1.42329 1.2298 0
M  V30 724 O 64.5663 0.504865 1.74129 0
M  V30 725 C 64.6143 3.60472 0.095895 0
M  V30 726 O 63.7183 3.95927 1.15394 0
M  V30 727 H 63.0593 0.661288 -0.0599463 0
M  V30 728 H 65.5893 1.88417 -0.797511 0
M  V30 729 H 65.5993 4.06865 0.304071 0
M  V30 730 H 64.2743 4.07157 -0.84828 0
M  V30 731 H 62.8513 3.61252 0.924724 0
M  V30 732 N 65.0364 0.313813 1.54444 0
M  V30 733 C 65.9464 -0.565714 2.27677 0
M  V30 734 C 66.9624 -1.13754 1.31666 0
M  V30 735 O 68.1384 -1.15959 1.64668 0
M  V30 736 C 65.2034 -1.71528 3.01296 0
M  V30 737 C 64.2644 -1.17624 4.12872 0
M  V30 738 C 63.4974 -2.27102 4.8297 0
M  V30 739 O 63.7204 -3.47256 4.52514 0
M  V30 740 O 62.6544 -1.9307 5.70094 0
M  V30 741 H 66.4804 0.0287296 3.03686 0
M  V30 742 H 64.0654 0.0798312 1.49187 0
M  V30 743 H 65.9474 -2.38476 3.4743 0
M  V30 744 H 64.6224 -2.29608 2.2817 0
M  V30 745 H 63.5294 -0.472124 3.71109 0
M  V30 746 H 64.8624 -0.640695 4.88012 0
M  V30 747 N 66.5145 -1.57545 0.0417849 0
M  V30 748 C 67.4445 -2.14009 -0.933929 0
M  V30 749 C 68.4255 -1.05938 -1.33083 0
M  V30 750 O 69.6105 -1.33833 -1.40721 0
M  V30 751 C 66.7405 -2.67747 -2.21199 0
M  V30 752 C 65.6945 -3.80718 -1.95544 0
M  V30 753 C 65.0205 -4.20935 -3.29724 0
M  V30 754 C 66.3205 -5.06258 -1.28452 0
M  V30 755 H 68.0145 -2.95788 -0.463645 0
M  V30 756 H 65.5605 -1.42285 -0.221573 0
M  V30 757 H 67.5135 -3.05886 -2.89848 0
M  V30 758 H 66.2375 -1.83147 -2.70416 0
M  V30 759 H 64.8965 -3.43037 -1.2931 0
M  V30 760 H 64.5445 -3.33298 -3.76724 0
M  V30 761 H 64.2445 -4.9707 -3.13361 0
M  V30 762 H 65.7685 -4.61666 -3.9962 0
M  V30 763 H 67.1825 -5.41903 -1.8712 0
M  V30 764 H 65.5795 -5.87475 -1.22445 0
M  V30 765 H 66.6495 -4.84207 -0.259219 0
M  V30 766 N 67.9926 0.231505 -1.5589 0
M  V30 767 C 69.2696 0.981096 -1.69215 0
M  V30 768 C 69.6496 2.02799 -0.586164 0
M  V30 769 O 68.9976 2.24823 0.408253 0
M  V30 770 C 69.2076 1.60054 -3.10135 0
M  V30 771 C 70.5556 2.09658 -3.69227 0
M  V30 772 O 71.5796 1.69967 -3.13033 0
M  V30 773 O 70.4386 2.8258 -4.67772 0
M  V30 774 H 67.5326 0.457653 -0.688827 0
M  V30 775 H 70.0786 0.224073 -1.68214 0
M  V30 776 H 68.8506 0.844105 -3.82087 0
M  V30 777 H 68.4736 2.42336 -3.15212 0
M  V30 778 N 69.4707 1.49531 0.497807 0
M  V30 779 C 70.4177 1.66436 1.59899 0
M  V30 780 C 71.3877 0.505793 1.58212 0
M  V30 781 O 72.5727 0.733202 1.7615 0
M  V30 782 C 69.7127 1.7399 2.98029 0
M  V30 783 C 68.8257 3.01172 3.09708 0
M  V30 784 C 67.9607 2.99686 4.38591 0
M  V30 785 C 66.9997 4.21434 4.43914 0
M  V30 786 N 66.1367 4.1784 5.64229 0
M  V30 787 H 70.9767 2.60459 1.44793 0
M  V30 788 H 68.5137 1.29137 0.704423 0
M  V30 789 H 70.4717 1.76352 3.78095 0
M  V30 790 H 69.1017 0.834301 3.11832 0
M  V30 791 H 68.1537 3.08408 2.22685 0
M  V30 792 H 69.4657 3.91165 3.09502 0
M  V30 793 H 68.6197 3.00628 5.2698 0
M  V30 794 H 67.3587 2.07477 4.41367 0
M  V30 795 H 66.3637 4.20733 3.53926 0
M  V30 796 H 67.5887 5.14839 4.42851 0
M  V30 797 H 65.5347 3.28469 5.67841 0
M  V30 798 H 65.4517 5.01571 5.65652 0
M  V30 799 H 66.7197 4.22889 6.54817 0
M  V30 800 N 70.9488 -0.749086 1.3866 0
M  V30 801 C 71.9118 -1.84457 1.36045 0
M  V30 802 C 72.9118 -1.58682 0.260122 0
M  V30 803 O 74.1018 -1.66343 0.517261 0
M  V30 804 C 71.2338 -3.22008 1.11911 0
M  V30 805 H 72.4268 -1.88182 2.33512 0
M  V30 806 H 69.9798 -0.951266 1.24019 0
M  V30 807 H 70.7148 -3.2395 0.150686 0
M  V30 808 H 70.4998 -3.42111 1.91579 0
M  V30 809 H 71.9898 -4.0208 1.12788 0
M  V30 810 N 72.4269 -1.23603 -0.977757 0
M  V30 811 C 73.6759 -1.06377 -1.71368 0
M  V30 812 C 73.9889 0.399062 -1.91486 0
M  V30 813 O 75.1949 0.691312 -2.62551 0
M  V30 814 C 73.6509 -1.85512 -3.08404 0
M  V30 815 C 73.2589 -3.36141 -2.96164 0
M  V30 816 C 75.0029 -1.76783 -3.85938 0
M  V30 817 C 72.9099 -4.07659 -4.28449 0
M  V30 818 H 71.8399 -0.394452 -0.642591 0
M  V30 819 H 74.4909 -1.47594 -1.09034 0
M  V30 820 H 72.8729 -1.37103 -3.71509 0
M  V30 821 H 74.0469 -3.92056 -2.42133 0
M  V30 822 H 72.3619 -3.45712 -2.32104 0
M  V30 823 H 74.9589 -2.27526 -4.83876 0
M  V30 824 H 75.3019 -0.731116 -4.0983 0
M  V30 825 H 75.8349 -2.22818 -3.2954 0
M  V30 826 H 72.5739 -5.11648 -4.09752 0
M  V30 827 H 72.0939 -3.5653 -4.82334 0
M  V30 828 H 73.7729 -4.141 -4.97122 0
M  V30 829 N 73.905 1.17692 -1.04816 0
M  V30 830 C 75.153 1.87488 -0.754497 0
M  V30 831 C 75.474 1.81205 0.720407 0
M  V30 832 O 74.744 1.23544 1.52032 0
M  V30 833 H 73.324 0.694101 -0.276102 0
M  V30 834 H 75.986 1.42793 -1.32651 0
M  V30 835 H 75.082 2.93328 -1.06606 0
M  V30 836 N 75.3831 0.828654 1.34056 0
M  V30 837 C 76.7991 0.515135 1.51058 0
M  V30 838 C 76.9991 -0.959581 1.77184 0
M  V30 839 O 76.0551 -1.74382 1.82612 0
M  V30 840 C 77.3681 1.37963 2.67183 0
M  V30 841 C 78.9161 1.37735 2.81066 0
M  V30 842 C 79.3911 2.22645 4.00241 0
M  V30 843 N 80.8821 2.203 4.07458 0
M  V30 844 C 81.6171 2.82744 4.98842 0
M  V30 845 N 81.1131 3.54201 5.9541 0
M  V30 846 N 82.9061 2.72268 4.91759 0
M  V30 847 H 75.0571 1.78343 1.15358 0
M  V30 848 H 77.3201 0.760304 0.566252 0
M  V30 849 H 77.0261 2.42714 2.54525 0
M  V30 850 H 76.9001 1.0484 3.62338 0
M  V30 851 H 79.2871 0.337593 2.93163 0
M  V30 852 H 79.3681 1.74859 1.86703 0
M  V30 853 H 79.0121 3.26674 3.88905 0
M  V30 854 H 78.9421 1.82869 4.93829 0
M  V30 855 H 81.4331 1.68327 3.38341 0
M  V30 856 H 81.7461 3.9908 6.61782 0
M  V30 857 H 80.0911 3.58308 5.95517 0
M  V30 858 H 83.2821 2.16014 4.15278 0
M  V30 859 H 83.4551 3.21219 5.62781 0
M  V30 860 N 76.8612 -1.46375 0.584142 0
M  V30 861 C 77.8092 -2.32042 -0.161047 0
M  V30 862 C 78.8032 -1.44569 -0.882966 0
M  V30 863 O 80.0092 -1.61186 -0.801191 0
M  V30 864 H 76.3842 -0.748659 -0.0708033 0
M  V30 865 H 78.3552 -2.92704 0.580269 0
M  V30 866 C 77.1042 -3.27762 -1.1605 0
M  V30 867 H 76.4272 -3.95051 -0.614419 0
M  V30 868 H 77.8672 -3.90481 -1.65228 0
M  V30 869 C 76.3262 -2.53218 -2.22221 0
M  V30 870 O 76.8562 -2.29628 -3.29597 0
M  V30 871 N 75.0622 -2.13756 -1.96868 0
M  V30 872 H 74.6092 -2.33142 -1.09557 0
M  V30 873 H 74.5672 -1.642 -2.68115 0
M  V30 874 N 78.3393 -0.321999 -1.54275 0
M  V30 875 C 79.5793 0.281657 -2.0245 0
M  V30 876 C 79.9433 1.49468 -1.20513 0
M  V30 877 O 81.1443 2.17109 -1.58484 0
M  V30 878 C 79.4153 0.609014 -3.52173 0
M  V30 879 S 80.9743 1.19255 -4.22284 0
M  V30 880 H 77.7923 0.0852825 -0.705867 0
M  V30 881 H 80.3943 -0.454758 -1.90137 0
M  V30 882 H 79.0983 -0.281982 -4.0943 0
M  V30 883 H 78.6293 1.37567 -3.68563 0
M  V30 884 H 80.6443 2.47944 -4.29812 0
M  V30 885 N 79.8174 1.5752 -0.0501392 0
M  V30 886 C 80.7654 2.12651 0.942459 0
M  V30 887 C 81.7594 1.05807 1.32292 0
M  V30 888 O 82.9654 1.24217 1.3027 0
M  V30 889 H 79.3404 0.679673 0.321789 0
M  V30 890 H 81.3114 2.94951 0.452356 0
M  V30 891 C 80.0604 2.68565 2.20836 0
M  V30 892 H 79.3834 3.50439 1.92439 0
M  V30 893 H 80.8234 3.10761 2.8845 0
M  V30 894 C 79.2824 1.62291 2.95234 0
M  V30 895 O 79.8124 1.03508 3.88135 0
M  V30 896 N 78.0184 1.33836 2.57946 0
M  V30 897 H 77.5654 1.81826 1.82475 0
M  V30 898 H 77.5234 0.629595 3.08032 0
M  V30 899 N 81.2955 -0.223234 1.56011 0
M  V30 900 C 82.5435 -0.946003 1.78592 0
M  V30 901 C 82.8645 -1.84936 0.618349 0
M  V30 902 O 82.1345 -1.92473 -0.364833 0
M  V30 903 H 80.7145 -0.352298 0.658707 0
M  V30 904 H 83.3765 -0.235494 1.93472 0
M  V30 905 H 82.4725 -1.55381 2.70672 0
M  V30 906 N 82.7736 -1.49793 -0.48987 0
M  V30 907 C 84.0196 -1.60078 -1.24511 0
M  V30 908 C 84.3526 -0.291608 -1.91998 0
M  V30 909 O 83.6276 0.705647 -1.81248 0
M  V30 910 C 83.9106 -2.76791 -2.30345 0
M  V30 911 C 83.7636 -4.17535 -1.67286 0
M  V30 912 C 85.0826 -2.89111 -3.31817 0
M  V30 913 H 82.2016 -0.582645 -0.451324 0
M  V30 914 H 84.8436 -1.82117 -0.541612 0
M  V30 915 H 82.9936 -2.5813 -2.90346 0
M  V30 916 H 84.6656 -4.4774 -1.11026 0
M  V30 917 H 82.9086 -4.22665 -0.976577 0
M  V30 918 H 83.5796 -4.95094 -2.44103 0
M  V30 919 H 86.0556 -3.06133 -2.81819 0
M  V30 920 H 84.9316 -3.72433 -4.03219 0
M  V30 921 H 85.1926 -1.9893 -3.94815 0
M  V30 922 N 84.2517 0.741722 -1.39055 0
M  V30 923 C 85.5007 1.49656 -1.35225 0
M  V30 924 C 85.8137 1.95533 0.0512708 0
M  V30 925 O 87.0197 2.7067 0.212138 0
M  V30 926 C 85.4757 2.70389 -2.37525 0
M  V30 927 C 85.0837 2.31489 -3.83558 0
M  V30 928 C 86.8277 3.48236 -2.42759 0
M  V30 929 C 84.7347 3.48903 -4.77515 0
M  V30 930 H 83.6647 0.56197 -0.502699 0
M  V30 931 H 86.3157 0.809727 -1.64668 0
M  V30 932 H 84.6977 3.41113 -2.01142 0
M  V30 933 H 85.8717 1.68354 -4.28945 0
M  V30 934 H 84.1867 1.66749 -3.81554 0
M  V30 935 H 86.7837 4.35558 -3.1015 0
M  V30 936 H 87.1267 3.90229 -1.45008 0
M  V30 937 H 87.6597 2.84535 -2.78002 0
M  V30 938 H 84.3987 3.11966 -5.76504 0
M  V30 939 H 83.9187 4.11041 -4.36813 0
M  V30 940 H 85.5977 4.15328 -4.96096 0
M  V30 941 N 85.7298 1.2412 0.971189 0
M  V30 942 C 86.9578 1.10575 1.74874 0
M  V30 943 C 87.3728 -0.342017 1.85676 0
M  V30 944 O 86.7298 -1.23617 1.34258 0
M  V30 945 C 86.7808 1.73579 3.171 0
M  V30 946 O 86.5018 3.12695 3.06844 0
M  V30 947 C 88.0028 1.65598 4.11208 0
M  V30 948 H 85.2228 0.386504 0.548503 0
M  V30 949 H 87.7668 1.64156 1.21955 0
M  V30 950 H 85.9218 1.24009 3.67016 0
M  V30 951 H 86.3358 3.43412 3.96445 0
M  V30 952 H 87.8098 2.1437 5.08674 0
M  V30 953 H 88.2868 0.616532 4.34851 0
M  V30 954 H 88.8928 2.14578 3.67201 0
M  V30 955 N 87.2079 -1.17134 1.05439 0
M  V30 956 C 88.1549 -2.21235 0.657539 0
M  V30 957 C 89.1249 -1.62551 -0.341543 0
M  V30 958 O 90.3099 -1.89379 -0.232393 0
M  V30 959 C 87.4499 -3.45076 0.0410575 0
M  V30 960 C 86.5629 -4.18042 1.08927 0
M  V30 961 C 85.6979 -5.29376 0.439848 0
M  V30 962 C 84.7369 -5.94132 1.4722 0
M  V30 963 N 83.8739 -6.96975 0.846756 0
M  V30 964 H 88.7139 -2.54534 1.54972 0
M  V30 965 H 86.2509 -1.25028 0.775006 0
M  V30 966 H 88.2089 -4.15862 -0.33383 0
M  V30 967 H 86.8389 -3.12353 -0.814568 0
M  V30 968 H 85.8909 -3.45945 1.58196 0
M  V30 969 H 87.2029 -4.62306 1.87282 0
M  V30 970 H 86.3569 -6.06699 0.0115125 0
M  V30 971 H 85.0959 -4.86251 -0.375656 0
M  V30 972 H 84.1009 -5.15538 1.91052 0
M  V30 973 H 85.3259 -6.39337 2.28965 0
M  V30 974 H 83.2719 -6.5598 0.0518075 0
M  V30 975 H 83.1889 -7.39565 1.5678 0
M  V30 976 H 84.4569 -7.78239 0.443277 0
M  V30 977 N 88.686 -0.835752 -1.33615 0
M  V30 978 C 89.963 -0.352017 -1.92406 0
M  V30 979 C 90.343 1.16225 -1.76224 0
M  V30 980 O 89.691 1.97526 -1.14873 0
M  V30 981 C 89.901 -0.795485 -3.39813 0
M  V30 982 C 91.249 -0.801703 -4.16963 0
M  V30 983 O 92.273 -0.738889 -3.48452 0
M  V30 984 O 91.132 -0.886607 -5.3926 0
M  V30 985 H 88.226 -0.0989641 -0.821057 0
M  V30 986 H 90.772 -0.921397 -1.42507 0
M  V30 987 H 89.544 -1.83795 -3.45449 0
M  V30 988 H 89.167 -0.202505 -3.97084 0
M  V30 989 N 90.1641 1.46063 -0.591896 0
M  V30 990 C 91.0741 2.34192 0.13831 0
M  V30 991 C 92.0901 1.50305 0.876608 0
M  V30 992 O 93.2661 1.8315 0.837728 0
M  V30 993 C 90.3311 3.27656 1.13326 0
M  V30 994 C 89.3921 4.27445 0.39863 0
M  V30 995 C 88.6251 5.16443 1.34618 0
M  V30 996 O 88.8481 5.08553 2.58321 0
M  V30 997 O 87.7821 5.95843 0.851768 0
M  V30 998 H 91.6081 2.98002 -0.58552 0
M  V30 999 H 89.1931 1.45188 -0.352239 0
M  V30 1000 H 91.0751 3.85291 1.70671 0
M  V30 1001 H 89.7501 2.6643 1.83839 0
M  V30 1002 H 88.6571 3.73471 -0.216895 0
M  V30 1003 H 89.9901 4.91482 -0.265709 0
M  V30 1004 N 91.6422 0.330177 1.54103 0
M  V30 1005 C 92.6052 -0.520144 2.2322 0
M  V30 1006 C 93.6052 -1.03828 1.22786 0
M  V30 1007 O 94.7952 -0.929652 1.4732 0
M  V30 1008 C 91.9272 -1.72317 2.94142 0
M  V30 1009 H 93.1202 0.0841605 2.99782 0
M  V30 1010 H 90.6732 0.0813433 1.56088 0
M  V30 1011 H 91.4082 -2.36653 2.21734 0
M  V30 1012 H 91.1932 -1.35898 3.67796 0
M  V30 1013 H 92.6832 -2.3266 3.46784 0
M  V30 1014 N 93.1203 -1.57491 0.0584922 0
M  V30 1015 C 94.0303 -2.15448 -0.928414 0
M  V30 1016 C 95.0463 -1.11416 -1.3365 0
M  V30 1017 O 96.2223 -1.4362 -1.41193 0
M  V30 1018 C 93.2873 -2.69393 -2.18239 0
M  V30 1019 C 92.3483 -3.88249 -1.83196 0
M  V30 1020 C 91.5813 -4.39613 -3.02616 0
M  V30 1021 O 91.8043 -3.90023 -4.16219 0
M  V30 1022 O 90.7383 -5.31111 -2.83204 0
M  V30 1023 H 94.5643 -3.00112 -0.465483 0
M  V30 1024 H 92.1493 -1.48499 -0.163826 0
M  V30 1025 H 94.0313 -3.04026 -2.91798 0
M  V30 1026 H 92.7063 -1.87796 -2.63656 0
M  V30 1027 H 91.6133 -3.58492 -1.06931 0
M  V30 1028 H 92.9463 -4.71098 -1.42573 0
M  V30 1029 N 94.5984 0.214957 -1.56127 0
M  V30 1030 C 95.5454 1.26642 -1.92952 0
M  V30 1031 C 96.5154 1.46244 -0.78753 0
M  V30 1032 O 97.7004 1.59704 -1.04399 0
M  V30 1033 C 94.8404 2.6104 -2.25726 0
M  V30 1034 C 93.9534 2.49183 -3.52891 0
M  V30 1035 C 93.0884 3.76149 -3.7508 0
M  V30 1036 C 92.1274 3.59041 -4.95738 0
M  V30 1037 N 91.2644 4.77972 -5.14283 0
M  V30 1038 H 96.1044 0.945384 -2.82607 0
M  V30 1039 H 93.6414 0.455489 -1.3987 0
M  V30 1040 H 95.5994 3.39313 -2.42739 0
M  V30 1041 H 94.2294 2.91227 -1.39236 0
M  V30 1042 H 93.2814 1.6231 -3.44034 0
M  V30 1043 H 94.5934 2.32466 -4.41318 0
M  V30 1044 H 93.7474 4.62865 -3.92226 0
M  V30 1045 H 92.4864 3.95799 -2.84947 0
M  V30 1046 H 91.4914 2.7071 -4.78535 0
M  V30 1047 H 92.7164 3.40856 -5.87362 0
M  V30 1048 H 90.6624 4.97923 -4.27093 0
M  V30 1049 H 90.5794 4.64006 -5.96853 0
M  V30 1050 H 91.8474 5.66096 -5.35869 0
M  V30 1051 N 96.0765 1.50051 0.48192 0
M  V30 1052 C 97.0065 1.71046 1.58951 0
M  V30 1053 C 97.9875 0.559288 1.60642 0
M  V30 1054 O 99.1725 0.797243 1.77081 0
M  V30 1055 C 96.3025 1.79462 2.97339 0
M  V30 1056 C 95.2565 2.94558 3.10515 0
M  V30 1057 C 94.5825 2.88105 4.50444 0
M  V30 1058 C 95.8825 4.35227 2.88747 0
M  V30 1059 H 97.5765 2.6378 1.41635 0
M  V30 1060 H 95.1225 1.26936 0.679942 0
M  V30 1061 H 97.0755 1.92734 3.74742 0
M  V30 1062 H 95.7995 0.833412 3.15788 0
M  V30 1063 H 94.4585 2.80918 2.35543 0
M  V30 1064 H 94.1065 1.89853 4.65795 0
M  V30 1065 H 93.8065 3.65366 4.60197 0
M  V30 1066 H 95.3305 3.03412 5.29881 0
M  V30 1067 H 96.7445 4.49449 3.55905 0
M  V30 1068 H 95.1415 5.13856 3.09955 0
M  V30 1069 H 96.2115 4.48347 1.84696 0
M  V30 1070 N 97.5546 -0.734337 1.39446 0
M  V30 1071 C 98.8016 -1.49391 1.36706 0
M  V30 1072 C 99.1296 -1.94465 -0.0367813 0
M  V30 1073 O 98.3846 -1.67154 -1.01774 0
M  V30 1074 C 98.6836 -2.74711 2.28623 0
M  V30 1075 C 98.3496 -2.48501 3.76242 0
M  V30 1076 C 97.0116 -2.41062 4.16464 0
M  V30 1077 C 99.3636 -2.26098 4.69606 0
M  V30 1078 C 96.6916 -2.09262 5.48112 0
M  V30 1079 C 99.0436 -1.95814 6.01531 0
M  V30 1080 C 97.7076 -1.86845 6.40816 0
M  V30 1081 H 96.9776 -0.546661 0.500243 0
M  V30 1082 H 99.6246 -0.842788 1.71957 0
M  V30 1083 H 97.9296 -3.44569 1.86492 0
M  V30 1084 H 99.6266 -3.32741 2.23796 0
M  V30 1085 H 96.2166 -2.55169 3.44364 0
M  V30 1086 H 100.401 -2.30812 4.39363 0
M  V30 1087 H 95.6566 -2.00841 5.77471 0
M  V30 1088 H 99.8306 -1.77488 6.73403 0
M  V30 1089 H 97.4576 -1.6197 7.42745 0
M  V30 1090 N 99.0327 -1.24633 -0.964593 0
M  V30 1091 C 99.9807 -1.03917 -2.08096 0
M  V30 1092 C 100.975 0.0268581 -1.69379 0
M  V30 1093 O 102.181 -0.127952 -1.79545 0
M  V30 1094 H 98.5557 -0.319044 -0.680966 0
M  V30 1095 H 100.527 -1.98581 -2.22729 0
M  V30 1096 C 99.2757 -0.663983 -3.41301 0
M  V30 1097 H 98.5987 -1.47605 -3.71555 0
M  V30 1098 H 100.039 -0.558663 -4.20303 0
M  V30 1099 C 98.4977 0.629169 -3.30973 0
M  V30 1100 O 99.0277 1.67404 -3.65156 0
M  V30 1101 N 97.2337 0.611057 -2.84103 0
M  V30 1102 H 96.7807 -0.239593 -2.56483 0
M  V30 1103 H 96.7387 1.47647 -2.77575 0
M  V30 1104 N 100.511 1.16574 -1.06058 0
M  V30 1105 C 101.443 2.2045 -0.627239 0
M  V30 1106 C 102.456 1.59752 0.313534 0
M  V30 1107 O 103.645 1.78192 0.104896 0
M  V30 1108 C 100.745 3.3875 0.100974 0
M  V30 1109 C 99.9178 4.29008 -0.852687 0
M  V30 1110 C 98.9768 5.25944 -0.164152 0
M  V30 1111 O 98.0028 5.63535 -0.801047 0
M  V30 1112 N 99.2048 5.70075 1.09518 0
M  V30 1113 H 101.97 2.58249 -1.52077 0
M  V30 1114 H 99.5308 1.3156 -0.943594 0
M  V30 1115 H 101.523 4.00638 0.57194 0
M  V30 1116 H 100.093 2.99476 0.89628 0
M  V30 1117 H 99.3128 3.64419 -1.50308 0
M  V30 1118 H 100.601 4.86195 -1.49972 0
M  V30 1119 H 99.9988 5.41624 1.6328 0
M  V30 1120 H 98.5558 6.34067 1.51006 0
M  V30 1121 N 101.989 0.842826 1.3317 0
M  V30 1122 C 103.266 0.362216 1.92217 0
M  V30 1123 C 103.646 -1.15289 1.76838 0
M  V30 1124 O 102.994 -1.96914 1.15919 0
M  V30 1125 C 103.204 0.813495 3.39387 0
M  V30 1126 C 104.552 0.823804 4.16532 0
M  V30 1127 O 105.576 0.757358 3.48055 0
M  V30 1128 O 104.435 0.915193 5.38782 0
M  V30 1129 H 101.529 0.103317 0.820521 0
M  V30 1130 H 104.075 0.928942 1.42017 0
M  V30 1131 H 102.847 1.85624 3.4447 0
M  V30 1132 H 102.47 0.223561 3.96971 0
M  V30 1133 N 103.467 -1.45747 0.599634 0
M  V30 1134 C 104.713 -2.02592 0.0918643 0
M  V30 1135 C 105.046 -1.46806 -1.27128 0
M  V30 1136 O 104.321 -0.639658 -1.83681 0
M  V30 1137 C 104.604 -3.60073 0.0443398 0
M  V30 1138 C 104.457 -4.26208 1.43759 0
M  V30 1139 C 105.776 -4.35309 -0.647608 0
M  V30 1140 H 102.895 -0.736175 0.034857 0
M  V30 1141 H 105.537 -1.73694 0.770081 0
M  V30 1142 H 103.687 -3.84823 -0.533224 0
M  V30 1143 H 105.359 -4.12668 2.06162 0
M  V30 1144 H 103.602 -3.84916 2.00056 0
M  V30 1145 H 104.273 -5.35069 1.35665 0
M  V30 1146 H 106.749 -4.15805 -0.156776 0
M  V30 1147 H 105.625 -5.45038 -0.649942 0
M  V30 1148 H 105.886 -4.07598 -1.71219 0
M  V30 1149 N 104.945 -0.338344 -1.53925 0
M  V30 1150 C 106.222 0.314774 -1.93051 0
M  V30 1151 C 106.602 1.68669 -1.26941 0
M  V30 1152 O 105.95 2.24636 -0.418445 0
M  V30 1153 C 106.16 0.392249 -3.46789 0
M  V30 1154 C 107.508 0.645554 -4.19664 0
M  V30 1155 O 108.532 0.474575 -3.53024 0
M  V30 1156 O 107.391 0.976408 -5.37707 0
M  V30 1157 H 104.485 0.182598 -0.80659 0
M  V30 1158 H 107.031 -0.389141 -1.65178 0
M  V30 1159 H 105.803 -0.570702 -3.87116 0
M  V30 1160 H 105.426 1.14316 -3.80812 0
M  V30 1161 N 106.423 1.57458 -0.0668435 0
M  V30 1162 C 107.386 2.11323 0.887422 0
M  V30 1163 C 108.386 1.03618 1.22964 0
M  V30 1164 O 109.576 1.29626 1.16373 0
M  V30 1165 C 106.708 2.61048 2.19242 0
M  V30 1166 H 107.901 2.96942 0.420194 0
M  V30 1167 H 105.454 1.55239 0.181793 0
M  V30 1168 H 106.189 1.78868 2.70512 0
M  V30 1169 H 105.974 3.39769 1.95702 0
M  V30 1170 H 107.464 3.02814 2.87565 0
M  V30 1171 N 107.901 -0.206675 1.56239 0
M  V30 1172 C 108.864 -1.23976 1.92776 0
M  V30 1173 C 109.864 -1.39041 0.807729 0
M  V30 1174 O 111.054 -1.37051 1.0753 0
M  V30 1175 C 108.186 -2.61112 2.19165 0
M  V30 1176 H 109.379 -0.927764 2.85189 0
M  V30 1177 H 106.932 -0.447718 1.4975 0
M  V30 1178 H 107.667 -2.97386 1.29352 0
M  V30 1179 H 107.452 -2.51552 3.00772 0
M  V30 1180 H 108.942 -3.35633 2.48476 0
M  V30 1181 N 109.379 -1.50304 -0.473955 0
M  V30 1182 C 110.625 -1.61389 -1.22806 0
M  V30 1183 C 110.958 -0.311955 -1.91678 0
M  V30 1184 O 110.233 0.686384 -1.81986 0
M  V30 1185 C 110.516 -2.79219 -2.27396 0
M  V30 1186 C 110.369 -4.19286 -1.62848 0
M  V30 1187 C 111.688 -2.92614 -3.28732 0
M  V30 1188 H 108.807 -0.587399 -0.445119 0
M  V30 1189 H 111.449 -1.82681 -0.522265 0
M  V30 1190 H 109.599 -2.61195 -2.87592 0
M  V30 1191 H 111.271 -4.48892 -1.06271 0
M  V30 1192 H 109.514 -4.23677 -0.931693 0
M  V30 1193 H 110.185 -4.97655 -2.38838 0
M  V30 1194 H 112.661 -3.09105 -2.78556 0
M  V30 1195 H 111.537 -3.76688 -3.99246 0
M  V30 1196 H 111.798 -2.03107 -3.92683 0
M  V30 1197 N 110.857 0.726932 -1.39834 0
M  V30 1198 C 112.273 1.03354 -1.21615 0
M  V30 1199 C 112.473 2.01327 -0.08338 0
M  V30 1200 O 111.529 2.46158 0.56238 0
M  V30 1201 C 112.842 1.58811 -2.55342 0
M  V30 1202 C 114.39 1.70851 -2.62257 0
M  V30 1203 C 114.865 2.29716 -3.96225 0
M  V30 1204 N 116.356 2.37116 -3.97907 0
M  V30 1205 C 117.091 2.83619 -4.98345 0
M  V30 1206 N 116.587 3.29958 -6.09179 0
M  V30 1207 N 118.38 2.82901 -4.8572 0
M  V30 1208 H 110.531 0.0773069 -2.12259 0
M  V30 1209 H 112.794 0.0969102 -0.943034 0
M  V30 1210 H 112.5 0.942855 -3.38826 0
M  V30 1211 H 112.374 2.57502 -2.75632 0
M  V30 1212 H 114.761 2.34497 -1.79152 0
M  V30 1213 H 114.842 0.707913 -2.45809 0
M  V30 1214 H 114.486 1.66696 -4.79765 0
M  V30 1215 H 114.416 3.30469 -4.09997 0
M  V30 1216 H 116.907 2.04374 -3.17868 0
M  V30 1217 H 117.22 3.63976 -6.8172 0
M  V30 1218 H 115.565 3.27946 -6.12761 0
M  V30 1219 H 118.756 2.46027 -3.98231 0
M  V30 1220 H 118.929 3.18827 -5.6414 0
M  V30 1221 N 112.336 1.25143 0.95797 0
M  V30 1222 C 113.584 1.09476 1.69881 0
M  V30 1223 C 113.905 -0.365502 1.91544 0
M  V30 1224 O 113.175 -1.25985 1.50015 0
M  V30 1225 H 111.755 0.402128 0.629525 0
M  V30 1226 H 114.417 1.57214 1.15194 0
M  V30 1227 H 113.513 1.60046 2.6794 0
M  V30 1228 N 113.814 -1.1601 1.06675 0
M  V30 1229 C 115.063 -1.85973 0.780818 0
M  V30 1230 C 115.376 -1.82819 -0.695444 0
M  V30 1231 O 116.582 -2.484 -1.09589 0
M  V30 1232 C 115.038 -3.33757 1.34665 0
M  V30 1233 C 114.646 -3.45374 2.85343 0
M  V30 1234 C 116.39 -4.0895 1.13843 0
M  V30 1235 C 114.297 -4.87266 3.35151 0
M  V30 1236 H 113.227 -0.696661 0.288407 0
M  V30 1237 H 115.878 -1.30903 1.28595 0
M  V30 1238 H 114.26 -3.88456 0.769274 0
M  V30 1239 H 115.434 -3.00816 3.49065 0
M  V30 1240 H 113.749 -2.83619 3.04876 0
M  V30 1241 H 116.346 -5.13654 1.4854 0
M  V30 1242 H 116.689 -4.16229 0.0770282 0
M  V30 1243 H 117.222 -3.605 1.68179 0
M  V30 1244 H 113.961 -4.85168 4.40786 0
M  V30 1245 H 113.481 -5.32433 2.76179 0
M  V30 1246 H 115.16 -5.56097 3.30704 0
M  V30 1247 N 115.292 -0.849877 -1.32721 0
M  V30 1248 C 116.222 -0.306308 -2.31482 0
M  V30 1249 C 117.203 0.591952 -1.59468 0
M  V30 1250 O 118.388 0.513199 -1.87296 0
M  V30 1251 C 115.518 0.510204 -3.43532 0
M  V30 1252 C 114.472 -0.293209 -4.26994 0
M  V30 1253 C 113.798 0.647743 -5.30762 0
M  V30 1254 C 115.098 -1.51634 -4.99804 0
M  V30 1255 H 116.792 -1.13153 -2.77195 0
M  V30 1256 H 114.338 -0.545553 -1.33266 0
M  V30 1257 H 116.291 0.900856 -4.11658 0
M  V30 1258 H 115.015 1.36874 -2.96535 0
M  V30 1259 H 113.674 -0.665555 -3.60508 0
M  V30 1260 H 113.322 1.50299 -4.8002 0
M  V30 1261 H 113.022 0.11422 -5.87489 0
M  V30 1262 H 114.546 1.03567 -6.01753 0
M  V30 1263 H 115.96 -1.19824 -5.60638 0
M  V30 1264 H 114.357 -1.98745 -5.66234 0
M  V30 1265 H 115.427 -2.28018 -4.27943 0
M  V30 1266 N 116.77 1.45427 -0.607355 0
M  V30 1267 C 118.186 1.57283 -0.270985 0
M  V30 1268 C 118.386 1.59875 1.22647 0
M  V30 1269 O 117.442 1.52893 2.00948 0
M  V30 1270 C 118.755 2.85566 -0.941952 0
M  V30 1271 C 120.303 2.9924 -0.917849 0
M  V30 1272 C 120.778 4.30293 -1.56882 0
M  V30 1273 N 122.269 4.37051 -1.5343 0
M  V30 1274 C 123.004 5.37123 -2.00715 0
M  V30 1275 N 122.5 6.43734 -2.56084 0
M  V30 1276 N 124.293 5.28479 -1.91484 0
M  V30 1277 H 116.444 1.41988 -1.57966 0
M  V30 1278 H 118.707 0.67885 -0.661715 0
M  V30 1279 H 118.413 2.8955 -1.99633 0
M  V30 1280 H 118.287 3.74322 -0.465096 0
M  V30 1281 H 120.674 2.94822 0.127984 0
M  V30 1282 H 120.755 2.11895 -1.43297 0
M  V30 1283 H 120.399 4.35469 -2.61398 0
M  V30 1284 H 120.329 5.16454 -1.02873 0
M  V30 1285 H 122.82 3.60615 -1.12982 0
M  V30 1286 H 123.133 7.16341 -2.89958 0
M  V30 1287 H 121.478 6.44485 -2.60122 0
M  V30 1288 H 124.669 4.44098 -1.47967 0
M  V30 1289 H 124.842 6.0632 -2.28648 0
M  V30 1290 N 118.248 0.346503 1.53744 0
M  V30 1291 C 119.196 -0.52422 2.26616 0
M  V30 1292 C 120.19 -1.09948 1.28871 0
M  V30 1293 O 121.396 -1.04488 1.46568 0
M  V30 1294 H 117.771 -0.187743 0.728187 0
M  V30 1295 H 119.742 0.11239 2.98188 0
M  V30 1296 C 118.491 -1.66186 3.05414 0
M  V30 1297 H 117.814 -1.22848 3.80458 0
M  V30 1298 H 119.254 -2.24622 3.59612 0
M  V30 1299 C 117.713 -2.59302 2.1509 0
M  V30 1300 O 118.243 -3.61628 1.74895 0
M  V30 1301 N 116.449 -2.28055 1.8011 0
M  V30 1302 H 115.996 -1.44883 2.12994 0
M  V30 1303 H 115.954 -2.90615 1.19958 0
M  V30 1304 N 119.726 -1.57421 0.075193 0
M  V30 1305 C 120.689 -2.11791 -0.876203 0
M  V30 1306 C 121.689 -1.04268 -1.22412 0
M  V30 1307 O 122.879 -1.30242 -1.15684 0
M  V30 1308 C 120.011 -2.62207 -2.17854 0
M  V30 1309 H 121.204 -2.9716 -0.40444 0
M  V30 1310 H 118.757 -1.55333 -0.173557 0
M  V30 1311 H 119.492 -1.803 -2.6956 0
M  V30 1312 H 119.277 -3.40802 -1.93897 0
M  V30 1313 H 120.767 -3.04335 -2.85955 0
M  V30 1314 N 121.204 0.198386 -1.56346 0
M  V30 1315 C 122.151 1.24589 -1.94284 0
M  V30 1316 C 123.121 1.454 -0.802997 0
M  V30 1317 O 124.306 1.58588 -1.06087 0
M  V30 1318 C 121.446 2.58631 -2.28482 0
M  V30 1319 C 120.559 2.45426 -3.55514 0
M  V30 1320 C 119.694 3.7215 -3.79049 0
M  V30 1321 C 118.733 3.53763 -4.99518 0
M  V30 1322 N 117.87 4.72491 -5.19323 0
M  V30 1323 H 122.71 0.915356 -2.83593 0
M  V30 1324 H 120.247 0.440629 -1.40346 0
M  V30 1325 H 122.205 3.3672 -2.46324 0
M  V30 1326 H 120.835 2.89734 -1.42317 0
M  V30 1327 H 119.887 1.58652 -3.45737 0
M  V30 1328 H 121.199 2.27772 -4.43758 0
M  V30 1329 H 120.353 4.58679 -3.97113 0
M  V30 1330 H 119.092 3.92754 -2.89129 0
M  V30 1331 H 118.097 2.65619 -4.8138 0
M  V30 1332 H 119.322 3.34607 -5.90944 0
M  V30 1333 H 117.268 4.93365 -4.3235 0
M  V30 1334 H 117.185 4.5765 -6.01741 0
M  V30 1335 H 118.453 5.6038 -5.41843 0
M  V30 1336 N 122.682 1.50554 0.465978 0
M  V30 1337 C 123.612 1.72722 1.57128 0
M  V30 1338 C 124.593 0.576294 1.6004 0
M  V30 1339 O 125.778 0.81598 1.76225 0
M  V30 1340 C 122.908 1.82605 2.95419 0
M  V30 1341 C 121.862 2.97835 3.07373 0
M  V30 1342 C 121.188 2.92867 4.47363 0
M  V30 1343 C 122.488 4.38265 2.84114 0
M  V30 1344 H 124.182 2.65267 1.38829 0
M  V30 1345 H 121.728 1.2765 0.666441 0
M  V30 1346 H 123.681 1.96698 3.72677 0
M  V30 1347 H 122.405 0.866858 3.14886 0
M  V30 1348 H 121.064 2.83401 2.3255 0
M  V30 1349 H 120.712 1.94783 4.63755 0
M  V30 1350 H 120.412 3.70227 4.56296 0
M  V30 1351 H 121.936 3.09015 5.26633 0
M  V30 1352 H 123.35 4.53198 3.51118 0
M  V30 1353 H 121.747 5.17115 3.04487 0
M  V30 1354 H 122.817 4.50281 1.7993 0
M  V30 1355 N 124.16 -0.719506 1.40217 0
M  V30 1356 C 125.107 -1.83359 1.40172 0
M  V30 1357 C 126.077 -1.64065 0.259206 0
M  V30 1358 O 127.262 -1.85254 0.456677 0
M  V30 1359 C 124.402 -3.2103 1.26624 0
M  V30 1360 C 123.515 -3.51923 2.50548 0
M  V30 1361 C 122.65 -4.79079 2.29471 0
M  V30 1362 C 121.689 -5.02863 3.48992 0
M  V30 1363 N 120.826 -6.2123 3.27135 0
M  V30 1364 H 125.666 -1.82733 2.35399 0
M  V30 1365 H 123.203 -0.892688 1.16917 0
M  V30 1366 H 125.161 -4.00524 1.16776 0
M  V30 1367 H 123.791 -3.20895 0.350176 0
M  V30 1368 H 122.843 -2.67014 2.70939 0
M  V30 1369 H 124.155 -3.6541 3.39525 0
M  V30 1370 H 123.309 -5.66582 2.16955 0
M  V30 1371 H 122.048 -4.67794 1.37913 0
M  V30 1372 H 121.053 -4.13816 3.6199 0
M  V30 1373 H 122.278 -5.16023 4.41472 0
M  V30 1374 H 120.224 -6.11204 2.38256 0
M  V30 1375 H 120.141 -6.35375 4.09675 0
M  V30 1376 H 121.409 -7.11532 3.18344 0
M  V30 1377 N 125.638 -1.25649 -0.95132 0
M  V30 1378 C 127.049 -1.09654 -1.51106 0
M  V30 1379 C 127.4 0.326615 -1.93462 0
M  V30 1380 O 126.525 1.21697 -1.78938 0
M  V30 1381 C 127.12 -1.98437 -2.74605 0
M  V30 1382 C 125.679 -1.86618 -3.2688 0
M  V30 1383 C 124.826 -1.9239 -1.99703 0
M  V30 1384 H 127.777 -1.38887 -0.767865 0
M  V30 1385 H 127.798 -1.5263 -3.48546 0
M  V30 1386 H 127.31 -3.02009 -2.43746 0
M  V30 1387 H 125.411 -0.859421 -3.62553 0
M  V30 1388 H 125.524 -2.71607 -3.94673 0
M  V30 1389 H 123.888 -1.36317 -2.15151 0
M  V30 1390 H 124.671 -2.97573 -1.71188 0
M  V30 1391 N 127.117 1.15442 -1.07289 0
M  V30 1392 C 128.363 1.86489 -0.796846 0
M  V30 1393 C 128.696 1.82078 0.675371 0
M  V30 1394 O 127.971 1.24346 1.4956 0
M  V30 1395 C 128.254 3.35626 -1.30489 0
M  V30 1396 C 128.107 3.48673 -2.84161 0
M  V30 1397 C 129.426 4.30357 -0.920907 0
M  V30 1398 H 126.545 0.677144 -0.290939 0
M  V30 1399 H 129.187 1.35633 -1.33056 0
M  V30 1400 H 127.337 3.79068 -0.850883 0
M  V30 1401 H 129.009 3.14099 -3.37846 0
M  V30 1402 H 127.252 2.90253 -3.22391 0
M  V30 1403 H 127.923 4.53453 -3.14777 0
M  V30 1404 H 130.399 3.94871 -1.3121 0
M  V30 1405 H 129.275 5.33193 -1.30372 0
M  V30 1406 H 129.536 4.4176 0.173226 0
M  V30 1407 N 128.595 0.856903 1.32268 0
M  V30 1408 C 129.825 0.47475 2.01071 0
M  V30 1409 C 130.233 -0.933746 1.64553 0
M  V30 1410 O 129.576 -1.62114 0.863989 0
M  V30 1411 C 129.638 0.536746 3.55471 0
M  V30 1412 C 129.302 1.90453 4.15423 0
M  V30 1413 C 130.299 2.87029 4.33486 0
M  V30 1414 C 127.984 2.20229 4.51447 0
M  V30 1415 C 129.978 4.11532 4.86744 0
M  V30 1416 C 127.665 3.44984 5.0441 0
M  V30 1417 C 128.663 4.40452 5.22007 0
M  V30 1418 O 128.351 5.62998 5.73837 0
M  V30 1419 H 128.083 0.184778 0.650256 0
M  V30 1420 H 130.637 1.15615 1.69771 0
M  V30 1421 H 128.867 -0.20152 3.86175 0
M  V30 1422 H 130.556 0.169875 4.05544 0
M  V30 1423 H 131.322 2.6533 4.05986 0
M  V30 1424 H 127.201 1.46705 4.37034 0
M  V30 1425 H 130.745 4.86056 5.00395 0
M  V30 1426 H 126.642 3.66532 5.31342 0
M  V30 1427 H 127.41 5.64987 5.92226 0
M  V30 1428 N 130.073 -1.45103 0.615059 0
M  V30 1429 C 131.35 -1.95549 0.0448276 0
M  V30 1430 C 131.73 -1.55737 -1.4251 0
M  V30 1431 O 131.078 -0.823556 -2.13143 0
M  V30 1432 C 131.288 -3.48098 0.250785 0
M  V30 1433 C 132.636 -4.24384 0.135509 0
M  V30 1434 O 133.66 -3.55738 0.181299 0
M  V30 1435 O 132.519 -5.46493 0.0268878 0
M  V30 1436 H 129.613 -0.8264 -0.0314845 0
M  V30 1437 H 132.159 -1.55232 0.685642 0
M  V30 1438 H 130.931 -3.7007 1.27139 0
M  V30 1439 H 130.554 -3.95323 -0.424937 0
M  V30 1440 N 131.551 -0.354651 -1.53558 0
M  V30 1441 C 132.776 0.242153 -2.05981 0
M  V30 1442 C 133.201 1.42553 -1.2272 0
M  V30 1443 O 132.559 1.79656 -0.243604 0
M  V30 1444 C 132.607 0.624367 -3.55154 0
M  V30 1445 O 131.711 1.72301 -3.74681 0
M  V30 1446 H 131.052 0.0378432 -0.662921 0
M  V30 1447 H 133.582 -0.512087 -1.98088 0
M  V30 1448 H 133.592 0.898433 -3.97985 0
M  V30 1449 H 132.267 -0.240989 -4.15201 0
M  V30 1450 H 130.844 1.44535 -3.4375 0
M  V30 1451 N 133.029 1.57378 -0.0835403 0
M  V30 1452 C 133.959 2.1641 0.87686 0
M  V30 1453 C 134.94 1.09429 1.30228 0
M  V30 1454 O 136.125 1.37516 1.37124 0
M  V30 1455 C 133.255 2.73517 2.14022 0
M  V30 1456 C 132.209 3.85769 1.85381 0
M  V30 1457 C 131.535 4.29529 3.18448 0
M  V30 1458 C 132.835 5.09486 1.14984 0
M  V30 1459 H 134.529 2.96914 0.385059 0
M  V30 1460 H 132.075 1.42823 0.18377 0
M  V30 1461 H 134.028 3.13463 2.81636 0
M  V30 1462 H 132.752 1.90252 2.65465 0
M  V30 1463 H 131.411 3.46345 1.20169 0
M  V30 1464 H 131.059 3.43169 3.67755 0
M  V30 1465 H 130.759 5.05204 3.00071 0
M  V30 1466 H 132.283 4.72099 3.8724 0
M  V30 1467 H 133.697 5.46674 1.72687 0
M  V30 1468 H 132.094 5.90515 1.06826 0
M  V30 1469 H 133.164 4.84724 0.130749 0
M  V30 1470 N 134.507 -0.190092 1.56449 0
M  V30 1471 C 135.784 -0.935886 1.71757 0
M  V30 1472 C 136.164 -2.01173 0.639726 0
M  V30 1473 O 135.512 -2.25827 -0.348502 0
M  V30 1474 C 135.722 -1.51775 3.1427 0
M  V30 1475 C 137.07 -1.99794 3.74656 0
M  V30 1476 O 138.094 -1.61607 3.1743 0
M  V30 1477 O 136.953 -2.70079 4.751 0
M  V30 1478 H 134.047 -0.439229 0.700719 0
M  V30 1479 H 136.593 -0.179395 1.68749 0
M  V30 1480 H 135.365 -0.742505 3.84191 0
M  V30 1481 H 134.988 -2.33894 3.21527 0
M  V30 1482 N 135.985 -1.50799 -0.457987 0
M  V30 1483 C 136.948 -1.7005 -1.53674 0
M  V30 1484 C 137.948 -0.570881 -1.50325 0
M  V30 1485 O 139.138 -0.838126 -1.52712 0
M  V30 1486 C 136.27 -1.73788 -2.93276 0
M  V30 1487 H 137.463 -2.66306 -1.37917 0
M  V30 1488 H 135.016 -1.40477 -0.685271 0
M  V30 1489 H 135.751 -0.792717 -3.14462 0
M  V30 1490 H 135.536 -2.55864 -2.97113 0
M  V30 1491 H 137.026 -1.90591 -3.71571 0
M  V30 1492 N 137.463 0.71206 -1.40597 0
M  V30 1493 C 138.709 1.47416 -1.39271 0
M  V30 1494 C 139.042 1.942 0.00388791 0
M  V30 1495 O 138.317 1.68403 0.973179 0
M  V30 1496 C 138.6 2.69774 -2.38525 0
M  V30 1497 C 138.453 2.28861 -3.87224 0
M  V30 1498 C 139.772 3.71939 -2.35264 0
M  V30 1499 H 136.891 0.534713 -0.5072 0
M  V30 1500 H 139.533 0.812375 -1.71757 0
M  V30 1501 H 137.683 3.26238 -2.10953 0
M  V30 1502 H 139.355 1.77852 -4.25636 0
M  V30 1503 H 137.598 1.60824 -4.02887 0
M  V30 1504 H 138.269 3.16584 -4.52193 0
M  V30 1505 H 140.745 3.25113 -2.59694 0
M  V30 1506 H 139.621 4.55186 -3.06753 0
M  V30 1507 H 139.882 4.20484 -1.36549 0
M  V30 1508 N 138.941 1.26152 0.944643 0
M  V30 1509 C 140.357 1.03189 1.21754 0
M  V30 1510 C 140.557 -0.245112 2.00004 0
M  V30 1511 O 139.613 -0.955176 2.33736 0
M  V30 1512 C 140.926 2.26119 1.98219 0
M  V30 1513 C 142.474 2.30984 2.11224 0
M  V30 1514 C 142.949 3.53597 2.91089 0
M  V30 1515 N 144.44 3.54053 2.98664 0
M  V30 1516 C 145.175 4.45593 3.60881 0
M  V30 1517 N 144.671 5.47416 4.24626 0
M  V30 1518 N 146.464 4.33252 3.58119 0
M  V30 1519 H 138.615 2.08177 0.421437 0
M  V30 1520 H 140.878 0.914723 0.248969 0
M  V30 1521 H 140.584 3.18984 1.48128 0
M  V30 1522 H 140.458 2.3009 2.98895 0
M  V30 1523 H 142.845 1.38635 2.60508 0
M  V30 1524 H 142.926 2.31026 1.09821 0
M  V30 1525 H 142.57 4.46273 2.42493 0
M  V30 1526 H 142.5 3.50802 3.92741 0
M  V30 1527 H 144.991 2.80403 2.53343 0
M  V30 1528 H 145.304 6.13459 4.69987 0
M  V30 1529 H 143.649 5.51278 4.23223 0
M  V30 1530 H 146.84 3.52924 3.0751 0
M  V30 1531 H 147.013 5.04786 4.06319 0
M  V30 1532 N 140.419 -1.14872 1.07899 0
M  V30 1533 C 141.835 -1.37776 0.805606 0
M  V30 1534 C 142.035 -1.92743 -0.587555 0
M  V30 1535 O 141.091 -2.13678 -1.34528 0
M  V30 1536 C 142.404 -2.34361 1.88402 0
M  V30 1537 C 143.952 -2.48012 1.90942 0
M  V30 1538 C 144.427 -3.47893 2.97883 0
M  V30 1539 N 145.918 -3.55433 2.97021 0
M  V30 1540 C 146.653 -4.32553 3.76412 0
M  V30 1541 N 146.149 -5.12959 4.65666 0
M  V30 1542 N 147.942 -4.27697 3.64735 0
M  V30 1543 H 140.093 -0.775365 1.97742 0
M  V30 1544 H 142.356 -0.403521 0.857831 0
M  V30 1545 H 142.062 -2.01098 2.88535 0
M  V30 1546 H 141.936 -3.34206 1.74889 0
M  V30 1547 H 144.323 -2.8057 0.914579 0
M  V30 1548 H 144.404 -1.48147 2.08534 0
M  V30 1549 H 144.048 -3.16069 3.97571 0
M  V30 1550 H 143.978 -4.47527 2.77538 0
M  V30 1551 H 146.469 -2.98048 2.32326 0
M  V30 1552 H 146.782 -5.69065 5.22862 0
M  V30 1553 H 145.127 -5.12245 4.69712 0
M  V30 1554 H 148.318 -3.63949 2.94378 0
M  V30 1555 H 148.491 -4.8755 4.26848 0
M  V30 1556 N 141.898 -0.863906 -1.31812 0
M  V30 1557 C 143.138 -0.47825 -1.98726 0
M  V30 1558 C 143.502 0.950397 -1.66828 0
M  V30 1559 O 144.703 1.44109 -2.26905 0
M  V30 1560 C 142.974 -0.721134 -3.50049 0
M  V30 1561 S 144.533 -0.434432 -4.36644 0
M  V30 1562 H 141.351 -0.178773 -0.688158 0
M  V30 1563 H 143.953 -1.11862 -1.60334 0
M  V30 1564 H 142.657 -1.75981 -3.70755 0
M  V30 1565 H 142.188 -0.0675315 -3.93342 0
M  V30 1566 H 144.203 0.735786 -4.90714 0
M  V30 1567 N 143.376 1.44774 -0.622745 0
M  V30 1568 C 144.339 2.29069 0.0774015 0
M  V30 1569 C 145.339 1.4059 0.780461 0
M  V30 1570 O 146.529 1.62551 0.626322 0
M  V30 1571 C 143.661 3.21974 1.12006 0
M  V30 1572 H 144.854 2.92459 -0.663901 0
M  V30 1573 H 142.407 1.51548 -0.382486 0
M  V30 1574 H 143.142 2.63417 1.89162 0
M  V30 1575 H 142.927 3.87168 0.619951 0
M  V30 1576 H 144.417 3.85318 1.60995 0
M  V30 1577 N 144.854 0.36279 1.53368 0
M  V30 1578 C 145.784 -0.476976 2.28576 0
M  V30 1579 C 146.765 -1.08631 1.30894 0
M  V30 1580 O 147.95 -1.10409 1.59761 0
M  V30 1581 C 145.08 -1.61828 3.07293 0
M  V30 1582 C 144.034 -1.13633 4.1264 0
M  V30 1583 C 143.36 -2.36766 4.79423 0
M  V30 1584 C 144.66 -0.223061 5.21823 0
M  V30 1585 H 146.354 0.150474 2.99022 0
M  V30 1586 H 143.9 0.0738103 1.43811 0
M  V30 1587 H 145.853 -2.21237 3.58653 0
M  V30 1588 H 144.577 -2.27292 2.34533 0
M  V30 1589 H 143.236 -0.564945 3.62221 0
M  V30 1590 H 142.884 -3.0068 4.03238 0
M  V30 1591 H 142.584 -2.05192 5.50609 0
M  V30 1592 H 144.108 -2.96865 5.33576 0
M  V30 1593 H 145.522 -0.724545 5.68703 0
M  V30 1594 H 143.919 0.001678 6.001 0
M  V30 1595 H 144.989 0.735553 4.79289 0
M  V30 1596 N 146.332 -1.57332 0.0918853 0
M  V30 1597 C 147.581 -1.93412 -0.572249 0
M  V30 1598 C 147.894 -0.975515 -1.69538 0
M  V30 1599 O 149.1 -1.22991 -2.42045 0
M  V30 1600 C 147.556 -3.43648 -1.0693 0
M  V30 1601 C 147.164 -4.47994 0.0239049 0
M  V30 1602 C 148.908 -3.88695 -1.70635 0
M  V30 1603 C 146.815 -5.89381 -0.488319 0
M  V30 1604 H 145.745 -0.721939 -0.217532 0
M  V30 1605 H 148.396 -1.82735 0.167369 0
M  V30 1606 H 146.778 -3.49466 -1.8625 0
M  V30 1607 H 147.952 -4.53815 0.799277 0
M  V30 1608 H 146.267 -4.12536 0.565946 0
M  V30 1609 H 148.864 -4.91725 -2.10025 0
M  V30 1610 H 149.207 -3.27166 -2.57426 0
M  V30 1611 H 149.74 -3.85564 -0.979023 0
M  V30 1612 H 146.479 -6.54602 0.342906 0
M  V30 1613 H 145.999 -5.87037 -1.23077 0
M  V30 1614 H 147.678 -6.39863 -0.958317 0
M  V30 1615 N 147.81 0.181792 -1.56548 0
M  V30 1616 C 148.758 1.24461 -1.965 0
M  V30 1617 C 149.752 1.464 -0.852261 0
M  V30 1618 O 150.958 1.47103 -1.03733 0
M  V30 1619 H 147.333 0.418138 -0.625031 0
M  V30 1620 H 149.304 0.880714 -2.85107 0
M  V30 1621 C 148.053 2.57891 -2.33212 0
M  V30 1622 H 147.376 2.41829 -3.18369 0
M  V30 1623 H 148.816 3.3097 -2.65019 0
M  V30 1624 C 147.275 3.15871 -1.17163 0
M  V30 1625 O 147.805 3.9913 -0.453708 0
M  V30 1626 N 146.011 2.74808 -0.944936 0
M  V30 1627 H 145.558 2.07205 -1.53049 0
M  V30 1628 H 145.516 3.13939 -0.170286 0
M  V30 1629 N 149.288 1.51039 0.449983 0
M  V30 1630 C 150.221 1.66105 1.56474 0
M  V30 1631 C 151.199 0.508776 1.54435 0
M  V30 1632 O 152.383 0.731005 1.73749 0
M  V30 1633 C 149.51 1.66304 2.9506 0
M  V30 1634 C 148.556 2.87346 3.15174 0
M  V30 1635 S 149.389 4.4835 2.92818 0
M  V30 1636 C 150.545 4.51274 4.33708 0
M  V30 1637 H 150.778 2.60397 1.43459 0
M  V30 1638 H 148.311 1.40565 0.638805 0
M  V30 1639 H 150.269 1.67103 3.74949 0
M  V30 1640 H 148.93 0.732108 3.05449 0
M  V30 1641 H 148.123 2.83849 4.16468 0
M  V30 1642 H 147.725 2.84223 2.43091 0
M  V30 1643 H 150.017 4.26136 5.26701 0
M  V30 1644 H 150.96 5.53017 4.42242 0
M  V30 1645 H 151.368 3.80738 4.16772 0
M  V30 1646 N 150.766 -0.704594 1.40972 0
M  V30 1647 C 152.012 -1.46675 1.40051 0
M  V30 1648 C 152.345 -1.94199 0.00641102 0
M  V30 1649 O 151.62 -1.68916 -0.964235 0
M  V30 1650 C 151.903 -2.68505 2.39952 0
M  V30 1651 C 151.756 -2.26805 3.88432 0
M  V30 1652 C 153.075 -3.70686 2.37233 0
M  V30 1653 H 150.194 -0.532015 0.510028 0
M  V30 1654 H 152.836 -0.803255 1.72185 0
M  V30 1655 H 150.986 -3.25114 2.1268 0
M  V30 1656 H 152.658 -1.75592 4.26574 0
M  V30 1657 H 150.901 -1.58685 4.03734 0
M  V30 1658 H 151.572 -3.14181 4.53866 0
M  V30 1659 H 154.048 -3.23731 2.61415 0
M  V30 1660 H 152.924 -4.53553 3.09162 0
M  V30 1661 H 153.185 -4.19754 1.38777 0
M  V30 1662 N 152.244 -1.26651 -0.937939 0
M  V30 1663 C 153.491 -1.12387 -1.6845 0
M  V30 1664 C 153.819 0.332208 -1.91642 0
M  V30 1665 O 153.074 1.2602 -1.49725 0
M  V30 1666 C 153.373 -1.84168 -3.06295 0
M  V30 1667 C 153.039 -3.34056 -3.02849 0
M  V30 1668 C 151.701 -3.74942 -3.01616 0
M  V30 1669 C 154.053 -4.29741 -2.9491 0
M  V30 1670 C 151.381 -5.09894 -2.90215 0
M  V30 1671 C 153.733 -5.64738 -2.8505 0
M  V30 1672 C 152.397 -6.0493 -2.82162 0
M  V30 1673 H 151.667 -0.411252 -0.616403 0
M  V30 1674 H 154.314 -1.57134 -1.09459 0
M  V30 1675 H 152.619 -1.319 -3.6893 0
M  V30 1676 H 154.316 -1.70569 -3.62915 0
M  V30 1677 H 150.906 -3.01534 -3.0459 0
M  V30 1678 H 155.09 -3.99133 -2.94969 0
M  V30 1679 H 150.346 -5.40194 -2.86358 0
M  V30 1680 H 154.52 -6.38561 -2.77872 0
M  V30 1681 H 152.147 -7.09457 -2.73084 0
M  V30 1682 N 153.722 1.14298 -1.08507 0
M  V30 1683 C 154.654 2.1907 -0.673859 0
M  V30 1684 C 155.667 1.60381 0.279577 0
M  V30 1685 O 156.856 1.78374 0.0670754 0
M  V30 1686 C 153.956 3.38888 0.0290979 0
M  V30 1687 C 153.129 4.27103 -0.943494 0
M  V30 1688 C 152.188 5.25477 -0.275676 0
M  V30 1689 O 151.214 5.61709 -0.920401 0
M  V30 1690 N 152.416 5.7227 0.974013 0
M  V30 1691 H 155.181 2.54965 -1.57521 0
M  V30 1692 H 152.742 1.29528 -0.971287 0
M  V30 1693 H 154.734 4.01761 0.48683 0
M  V30 1694 H 153.304 3.01309 0.832555 0
M  V30 1695 H 152.524 3.61149 -1.58004 0
M  V30 1696 H 153.812 4.82905 -1.60251 0
M  V30 1697 H 153.21 5.44965 1.51755 0
M  V30 1698 H 151.767 6.37127 1.37522 0
M  V30 1699 N 155.201 0.870884 1.31352 0
M  V30 1700 C 156.134 0.271983 2.26573 0
M  V30 1701 C 157.112 -0.599385 1.51149 0
M  V30 1702 O 158.296 -0.552605 1.80218 0
M  V30 1703 C 155.423 -0.614801 3.33073 0
M  V30 1704 C 154.469 0.185342 4.26097 0
M  V30 1705 S 155.302 1.56444 5.12138 0
M  V30 1706 C 156.458 0.683807 6.22153 0
M  V30 1707 H 156.691 1.07916 2.77023 0
M  V30 1708 H 154.224 0.669459 1.39132 0
M  V30 1709 H 156.182 -1.12074 3.94905 0
M  V30 1710 H 154.843 -1.39593 2.81376 0
M  V30 1711 H 154.036 -0.490771 5.01605 0
M  V30 1712 H 153.638 0.623415 3.68768 0
M  V30 1713 H 155.93 -0.10521 6.77418 0
M  V30 1714 H 156.873 1.41004 6.93919 0
M  V30 1715 H 157.281 0.250952 5.63942 0
M  V30 1716 N 156.679 -1.44442 0.630414 0
M  V30 1717 C 157.927 -2.01653 0.134351 0
M  V30 1718 C 158.248 -1.49836 -1.24796 0
M  V30 1719 O 157.518 -0.701684 -1.82902 0
M  V30 1720 H 156.098 -0.74554 0.0466769 0
M  V30 1721 H 158.76 -1.76952 0.816955 0
M  V30 1722 H 157.856 -3.11935 0.101498 0
M  V30 1723 N 158.157 -0.370918 -1.53173 0
M  V30 1724 C 159.067 0.480823 -2.2962 0
M  V30 1725 C 160.083 1.08789 -1.35798 0
M  V30 1726 O 161.259 1.09768 -1.68858 0
M  V30 1727 C 158.324 1.60227 -3.07454 0
M  V30 1728 C 157.385 1.0222 -4.16953 0
M  V30 1729 C 156.618 2.0902 -4.91066 0
M  V30 1730 O 156.841 3.30222 -4.65091 0
M  V30 1731 O 155.775 1.71778 -5.76867 0
M  V30 1732 H 159.601 -0.141421 -3.03371 0
M  V30 1733 H 157.186 -0.135146 -1.48787 0
M  V30 1734 H 159.068 2.25417 -3.56041 0
M  V30 1735 H 157.743 2.20982 -2.36535 0
M  V30 1736 H 156.65 0.334064 -3.72605 0
M  V30 1737 H 157.983 0.459131 -4.90054 0
M  V30 1738 N 159.635 1.57281 -0.100228 0
M  V30 1739 C 160.863 1.98879 0.570509 0
M  V30 1740 C 161.278 0.979476 1.61405 0
M  V30 1741 O 160.635 -0.0302288 1.82475 0
M  V30 1742 C 160.686 3.4052 1.2136 0
M  V30 1743 O 160.407 4.37588 0.211786 0
M  V30 1744 C 161.908 3.97149 1.96945 0
M  V30 1745 H 159.128 0.653428 0.152555 0
M  V30 1746 H 161.672 2.03697 -0.18103 0
M  V30 1747 H 159.827 3.367 1.91603 0
M  V30 1748 H 160.241 5.20118 0.676607 0
M  V30 1749 H 161.715 4.98393 2.37294 0
M  V30 1750 H 162.192 3.3525 2.83733 0
M  V30 1751 H 162.798 4.04458 1.31506 0
M  V30 1752 N 161.113 -0.173488 1.56642 0
M  V30 1753 C 162.361 -0.888706 1.81512 0
M  V30 1754 C 162.682 -1.82875 0.676872 0
M  V30 1755 O 161.952 -1.93536 -0.303414 0
M  V30 1756 H 160.532 -0.331164 0.669582 0
M  V30 1757 H 163.194 -0.173823 1.94123 0
M  V30 1758 H 162.29 -1.46691 2.75478 0
M  V30 1759 N 162.591 -1.51276 -0.441967 0
M  V30 1760 C 163.837 -1.63958 -1.19355 0
M  V30 1761 C 164.17 -0.352543 -1.90973 0
M  V30 1762 O 163.445 0.647627 -1.83401 0
M  V30 1763 C 163.728 -2.83979 -2.21422 0
M  V30 1764 C 163.581 -4.22646 -1.53918 0
M  V30 1765 C 164.9 -2.99521 -3.22451 0
M  V30 1766 H 162.019 -0.596709 -0.432559 0
M  V30 1767 H 164.661 -1.83748 -0.483398 0
M  V30 1768 H 162.811 -2.67237 -2.81987 0
M  V30 1769 H 164.483 -4.51045 -0.967256 0
M  V30 1770 H 162.726 -4.25558 -0.841615 0
M  V30 1771 H 163.397 -5.02609 -2.28229 0
M  V30 1772 H 165.873 -3.14944 -2.71937 0
M  V30 1773 H 164.749 -3.85072 -3.91166 0
M  V30 1774 H 165.01 -2.11391 -3.88287 0
M  V30 1775 N 164.069 0.697108 -1.41344 0
M  V30 1776 C 165.032 1.79281 -1.42797 0
M  V30 1777 C 166.032 1.57607 -0.318837 0
M  V30 1778 O 167.222 1.64309 -0.578642 0
M  V30 1779 C 164.354 3.17632 -1.23785 0
M  V30 1780 H 165.547 1.79385 -2.40335 0
M  V30 1781 H 163.1 0.904582 -1.27464 0
M  V30 1782 H 163.835 3.23167 -0.270814 0
M  V30 1783 H 163.62 3.34765 -2.04144 0
M  V30 1784 H 165.11 3.97617 -1.27633 0
M  V30 1785 N 165.547 1.27147 0.931209 0
M  V30 1786 C 166.795 1.13055 1.6752 0
M  V30 1787 C 167.116 -0.324791 1.92276 0
M  V30 1788 O 166.386 -1.22775 1.52654 0
M  V30 1789 H 164.966 0.415391 0.620854 0
M  V30 1790 H 167.628 1.59623 1.11833 0
M  V30 1791 H 166.724 1.65694 2.64485 0
M  V30 1792 N 167.025 -1.13721 1.09112 0
M  V30 1793 C 168.272 -1.84924 0.825192 0
M  V30 1794 C 168.6 -1.83347 -0.649151 0
M  V30 1795 O 167.855 -1.26449 -1.49362 0
M  V30 1796 C 168.154 -3.32861 1.30146 0
M  V30 1797 C 167.82 -3.54621 2.78486 0
M  V30 1798 C 166.482 -3.60268 3.18999 0
M  V30 1799 C 168.834 -3.62855 3.74146 0
M  V30 1800 C 166.162 -3.71679 4.53951 0
M  V30 1801 C 168.514 -3.75793 5.08883 0
M  V30 1802 C 167.178 -3.79692 5.4899 0
M  V30 1803 H 166.448 -0.676684 0.301959 0
M  V30 1804 H 169.095 -1.3428 1.36533 0
M  V30 1805 H 167.4 -3.85835 0.681064 0
M  V30 1806 H 169.097 -3.86395 1.07236 0
M  V30 1807 H 165.687 -3.50879 2.46134 0
M  V30 1808 H 169.871 -3.57775 3.43963 0
M  V30 1809 H 165.127 -3.72963 4.84467 0
M  V30 1810 H 169.301 -3.81107 5.82864 0
M  V30 1811 H 166.928 -3.88287 6.53558 0
M  V30 1812 N 168.503 -0.877838 -1.30888 0
M  V30 1813 C 169.731 -0.507414 -2.00581 0
M  V30 1814 C 170.146 0.902216 -1.65848 0
M  V30 1815 O 169.503 1.59225 -0.891831 0
M  V30 1816 C 169.554 -0.664162 -3.55347 0
M  V30 1817 O 169.275 -2.01829 -3.8884 0
M  V30 1818 C 170.776 -0.295787 -4.42312 0
M  V30 1819 H 167.996 -0.196866 -0.641471 0
M  V30 1820 H 170.54 -1.18117 -1.66939 0
M  V30 1821 H 168.695 -0.0378619 -3.87381 0
M  V30 1822 H 169.109 -2.03174 -4.8355 0
M  V30 1823 H 170.583 -0.456388 -5.5011 0
M  V30 1824 H 171.06 0.765663 -4.32475 0
M  V30 1825 H 171.666 -0.898113 -4.15709 0
M  V30 1826 N 169.982 1.44106 -0.638065 0
M  V30 1827 C 170.93 2.3248 0.0748149 0
M  V30 1828 C 171.924 1.47746 0.828702 0
M  V30 1829 O 173.13 1.64049 0.740816 0
M  V30 1830 H 169.505 0.750771 0.0429686 0
M  V30 1831 H 171.476 2.90348 -0.688504 0
M  V30 1832 C 170.225 3.31843 1.03805 0
M  V30 1833 H 169.548 3.97059 0.467375 0
M  V30 1834 H 170.988 3.96345 1.50622 0
M  V30 1835 C 169.447 2.61291 2.1267 0
M  V30 1836 O 169.977 2.41702 3.20847 0
M  V30 1837 N 168.183 2.20915 1.88798 0
M  V30 1838 H 167.73 2.37047 1.00829 0
M  V30 1839 H 167.688 1.74038 2.61836 0
M  V30 1840 N 171.46 0.379036 1.52974 0
M  V30 1841 C 172.685 -0.209353 2.06341 0
M  V30 1842 C 173.11 -1.40583 1.24972 0
M  V30 1843 O 172.468 -1.79246 0.272155 0
M  V30 1844 C 172.516 -0.567786 3.56102 0
M  V30 1845 O 171.62 -1.66318 3.77375 0
M  V30 1846 H 170.961 -0.0272919 0.663439 0
M  V30 1847 H 173.491 0.543536 1.97248 0
M  V30 1848 H 173.501 -0.835003 3.99364 0
M  V30 1849 H 172.176 0.307013 4.14765 0
M  V30 1850 H 170.753 -1.39048 3.46006 0
M  V30 1851 N 172.938 -1.57226 0.108567 0
M  V30 1852 C 173.868 -2.17778 -0.84232 0
M  V30 1853 C 174.849 -1.11487 -1.2847 0
M  V30 1854 O 176.034 -1.39681 -1.34918 0
M  V30 1855 C 173.164 -2.76888 -2.09644 0
M  V30 1856 C 172.118 -3.88669 -1.79221 0
M  V30 1857 C 171.444 -4.34541 -3.11574 0
M  V30 1858 C 172.744 -5.11251 -1.06864 0
M  V30 1859 H 174.438 -2.97489 -0.337774 0
M  V30 1860 H 171.984 -1.43097 -0.161025 0
M  V30 1861 H 173.937 -3.17904 -2.76614 0
M  V30 1862 H 172.661 -1.94451 -2.62405 0
M  V30 1863 H 171.32 -3.48213 -1.14644 0
M  V30 1864 H 170.968 -3.48977 -3.62249 0
M  V30 1865 H 170.668 -5.09914 -2.91996 0
M  V30 1866 H 172.192 -4.782 -3.7968 0
M  V30 1867 H 173.606 -5.49352 -1.63968 0
M  V30 1868 H 172.003 -5.9214 -0.974178 0
M  V30 1869 H 173.073 -4.8487 -0.0536168 0
M  V30 1870 N 174.416 0.165178 -1.56732 0
M  V30 1871 C 175.832 0.517174 -1.50988 0
M  V30 1872 C 176.032 1.84331 -0.813894 0
M  V30 1873 O 175.088 2.49672 -0.37682 0
M  V30 1874 C 176.401 0.544261 -2.95733 0
M  V30 1875 C 177.949 0.631039 -3.06573 0
M  V30 1876 C 178.424 0.68896 -4.52788 0
M  V30 1877 N 179.915 0.751683 -4.5706 0
M  V30 1878 C 180.65 0.817177 -5.67547 0
M  V30 1879 N 180.146 0.843129 -6.8765 0
M  V30 1880 N 181.939 0.856668 -5.55534 0
M  V30 1881 H 174.09 -0.704318 -2.00382 0
M  V30 1882 H 176.353 -0.254687 -0.913148 0
M  V30 1883 H 176.059 -0.361607 -3.49836 0
M  V30 1884 H 175.933 1.3886 -3.5071 0
M  V30 1885 H 178.32 1.52733 -2.52501 0
M  V30 1886 H 178.401 -0.240095 -2.54671 0
M  V30 1887 H 178.045 -0.2031 -5.07494 0
M  V30 1888 H 177.975 1.57633 -5.02454 0
M  V30 1889 H 180.466 0.739661 -3.70591 0
M  V30 1890 H 180.779 0.894448 -7.67606 0
M  V30 1891 H 179.124 0.811304 -6.90248 0
M  V30 1892 H 182.315 0.833437 -4.60621 0
M  V30 1893 H 182.488 0.904247 -6.4166 0
M  V30 1894 N 175.894 1.51508 0.433938 0
M  V30 1895 C 176.827 1.67756 1.54704 0
M  V30 1896 C 177.805 0.525127 1.53887 0
M  V30 1897 O 178.989 0.749393 1.72963 0
M  V30 1898 C 176.116 1.69424 2.9328 0
M  V30 1899 C 175.162 2.90673 3.12108 0
M  V30 1900 S 175.995 4.51431 2.88046 0
M  V30 1901 C 177.151 4.55849 4.28897 0
M  V30 1902 H 177.384 2.61904 1.40689 0
M  V30 1903 H 174.917 1.41235 0.62386 0
M  V30 1904 H 176.875 1.7107 3.73156 0
M  V30 1905 H 175.536 0.764464 3.04655 0
M  V30 1906 H 174.729 2.88251 4.13434 0
M  V30 1907 H 174.331 2.86786 2.40062 0
M  V30 1908 H 176.623 4.31699 5.22152 0
M  V30 1909 H 177.566 5.57676 4.36351 0
M  V30 1910 H 177.974 3.85137 4.12711 0
M  V30 1911 N 177.372 -0.689602 1.41712 0
M  V30 1912 C 178.302 -1.81577 1.46806 0
M  V30 1913 C 179.283 -1.66945 0.326105 0
M  V30 1914 O 180.468 -1.86588 0.538377 0
M  V30 1915 C 177.598 -3.19762 1.35535 0
M  V30 1916 C 176.552 -3.49107 2.47605 0
M  V30 1917 C 175.878 -4.86711 2.21397 0
M  V30 1918 C 177.178 -3.47483 3.89939 0
M  V30 1919 H 178.872 -1.7757 2.41058 0
M  V30 1920 H 176.418 -0.852887 1.16025 0
M  V30 1921 H 178.371 -3.98263 1.3771 0
M  V30 1922 H 177.095 -3.24409 0.377708 0
M  V30 1923 H 175.754 -2.72959 2.44722 0
M  V30 1924 H 175.402 -4.8799 1.21961 0
M  V30 1925 H 175.102 -5.0731 2.96497 0
M  V30 1926 H 176.626 -5.67515 2.25297 0
M  V30 1927 H 178.04 -4.1598 3.94505 0
M  V30 1928 H 176.437 -3.79615 4.64771 0
M  V30 1929 H 177.507 -2.46341 4.17665 0
M  V30 1930 N 178.85 -1.27639 -0.924453 0
M  V30 1931 C 179.782 -1.06442 -2.02985 0
M  V30 1932 C 180.795 -0.0194771 -1.62788 0
M  V30 1933 O 181.984 -0.261388 -1.76576 0
M  V30 1934 C 179.084 -0.59327 -3.33667 0
M  V30 1935 C 178.257 -1.71123 -4.02537 0
M  V30 1936 C 177.316 -1.23527 -5.11495 0
M  V30 1937 O 176.342 -1.93553 -5.35281 0
M  V30 1938 N 177.544 -0.0926678 -5.80426 0
M  V30 1939 H 180.309 -2.01633 -2.2173 0
M  V30 1940 H 177.87 -1.19248 -1.09505 0
M  V30 1941 H 179.862 -0.258686 -4.03872 0
M  V30 1942 H 178.432 0.265502 -3.1147 0
M  V30 1943 H 177.652 -2.21593 -3.26022 0
M  V30 1944 H 178.94 -2.46145 -4.45298 0
M  V30 1945 H 178.338 0.491741 -5.63559 0
M  V30 1946 H 176.895 0.182714 -6.51544 0
M  V30 1947 N 180.328 1.1314 -1.09713 0
M  V30 1948 C 181.26 2.18343 -0.697056 0
M  V30 1949 C 182.273 1.60669 0.262551 0
M  V30 1950 O 183.462 1.78435 0.0481527 0
M  V30 1951 C 180.562 3.38899 -0.00684728 0
M  V30 1952 C 179.735 4.26078 -0.988741 0
M  V30 1953 C 178.794 5.25155 -0.331394 0
M  V30 1954 O 177.82 5.60701 -0.979926 0
M  V30 1955 N 179.022 5.73271 0.913261 0
M  V30 1956 H 181.787 2.5328 -1.60216 0
M  V30 1957 H 179.348 1.28491 -0.984971 0
M  V30 1958 H 181.34 4.02255 0.444191 0
M  V30 1959 H 179.91 3.02175 0.800551 0
M  V30 1960 H 179.13 3.59453 -1.61826 0
M  V30 1961 H 180.418 4.81178 -1.65364 0
M  V30 1962 H 179.816 5.46544 1.45966 0
M  V30 1963 H 178.373 6.3855 1.30757 0
M  V30 1964 N 181.806 0.884767 1.30421 0
M  V30 1965 C 182.753 0.349642 2.28136 0
M  V30 1966 C 183.723 -0.560061 1.56373 0
M  V30 1967 O 184.908 -0.488524 1.8444 0
M  V30 1968 C 182.048 -0.42999 3.42411 0
M  V30 1969 C 181.161 0.508907 4.28992 0
M  V30 1970 C 180.296 -0.286301 5.30428 0
M  V30 1971 C 179.335 0.648079 6.08659 0
M  V30 1972 N 178.472 -0.111792 7.02011 0
M  V30 1973 H 183.312 1.18807 2.73293 0
M  V30 1974 H 180.849 0.597231 1.3443 0
M  V30 1975 H 182.807 -0.897923 4.07423 0
M  V30 1976 H 181.437 -1.23299 2.98324 0
M  V30 1977 H 180.489 1.09533 3.64289 0
M  V30 1978 H 181.801 1.22475 4.8353 0
M  V30 1979 H 180.955 -0.816098 6.01186 0
M  V30 1980 H 179.694 -1.03536 4.76583 0
M  V30 1981 H 178.699 1.18951 5.36778 0
M  V30 1982 H 179.924 1.39623 6.64592 0
M  V30 1983 H 177.87 -0.843395 6.50556 0
M  V30 1984 H 177.787 0.544429 7.54037 0
M  V30 1985 H 179.055 -0.622339 7.77012 0
M  V30 1986 N 183.284 -1.43765 0.645699 0
M  V30 1987 C 184.7 -1.56509 0.312591 0
M  V30 1988 C 184.9 -1.6307 -1.18365 0
M  V30 1989 O 183.956 -1.58167 -1.96824 0
M  V30 1990 C 185.269 -2.82968 1.01733 0
M  V30 1991 C 186.817 -2.96701 0.996865 0
M  V30 1992 C 187.292 -4.25982 1.68236 0
M  V30 1993 N 188.783 -4.32829 1.64964 0
M  V30 1994 C 189.518 -5.31613 2.14885 0
M  V30 1995 N 189.014 -6.36718 2.73061 0
M  V30 1996 N 190.807 -5.23217 2.05428 0
M  V30 1997 H 182.958 -1.3775 1.61675 0
M  V30 1998 H 185.221 -0.661067 0.679481 0
M  V30 1999 H 184.927 -2.84156 2.0724 0
M  V30 2000 H 184.801 -3.72957 0.564177 0
M  V30 2001 H 187.188 -2.95058 -0.0497719 0
M  V30 2002 H 187.269 -2.08022 1.48865 0
M  V30 2003 H 186.913 -4.28386 2.72852 0
M  V30 2004 H 186.843 -5.13545 1.16529 0
M  V30 2005 H 189.334 -3.57493 1.22503 0
M  V30 2006 H 189.647 -7.08401 3.08848 0
M  V30 2007 H 187.992 -6.37362 2.77118 0
M  V30 2008 H 191.183 -4.40019 1.59689 0
M  V30 2009 H 191.356 -6.00045 2.44643 0
M  V30 2010 N 184.763 -0.387143 -1.52771 0
M  V30 2011 C 186.009 0.188506 -2.02525 0
M  V30 2012 C 186.364 1.44649 -1.26864 0
M  V30 2013 O 185.657 1.88189 -0.359945 0
M  V30 2014 C 185.851 0.512209 -3.53711 0
M  V30 2015 C 185.68 -0.712855 -4.44014 0
M  V30 2016 C 184.45 -1.23147 -4.90064 0
M  V30 2017 C 186.648 -1.58453 -4.89282 0
M  V30 2018 N 184.63 -2.41431 -5.64433 0
M  V30 2019 C 186.001 -2.61381 -5.6221 0
M  V30 2020 C 188.056 -1.60488 -4.71326 0
M  V30 2021 C 186.759 -3.66227 -6.19088 0
M  V30 2022 C 188.785 -2.6424 -5.29085 0
M  V30 2023 C 188.147 -3.6589 -6.01917 0
M  V30 2024 H 184.246 0.0311236 -0.78138 0
M  V30 2025 H 186.83 -0.536548 -1.87161 0
M  V30 2026 H 185.001 1.20632 -3.69192 0
M  V30 2027 H 186.733 1.07482 -3.90166 0
M  V30 2028 H 183.488 -0.792795 -4.66917 0
M  V30 2029 H 183.912 -3.01274 -6.0627 0
M  V30 2030 H 188.554 -0.83247 -4.14524 0
M  V30 2031 H 186.272 -4.44337 -6.74974 0
M  V30 2032 H 189.858 -2.66695 -5.17074 0
M  V30 2033 H 188.738 -4.44855 -6.45813 0
M  V30 2034 N 186.241 1.57166 -0.116904 0
M  V30 2035 C 187.518 1.86645 0.585049 0
M  V30 2036 C 187.898 1.0177 1.84949 0
M  V30 2037 O 187.246 0.0960379 2.28298 0
M  V30 2038 C 187.456 3.37736 0.879507 0
M  V30 2039 C 188.804 4.06289 1.23348 0
M  V30 2040 O 189.828 3.42743 0.969836 0
M  V30 2041 O 188.687 5.18455 1.7282 0
M  V30 2042 H 185.781 0.772593 0.295007 0
M  V30 2043 H 188.327 1.69025 -0.151249 0
M  V30 2044 H 187.099 3.91296 -0.0166136 0
M  V30 2045 H 186.722 3.6078 1.67103 0
M  V30 2046 N 187.719 -0.156864 1.56817 0
M  V30 2047 C 188.629 -1.2136 2.00771 0
M  V30 2048 C 189.645 -1.47598 0.921459 0
M  V30 2049 O 190.821 -1.59462 1.2302 0
M  V30 2050 C 187.886 -2.52943 2.37109 0
M  V30 2051 C 186.947 -2.34439 3.59634 0
M  V30 2052 C 186.18 -3.59748 3.94229 0
M  V30 2053 O 186.403 -4.65526 3.29609 0
M  V30 2054 O 185.337 -3.52998 4.8752 0
M  V30 2055 H 189.163 -0.870468 2.90958 0
M  V30 2056 H 186.748 -0.36484 1.44877 0
M  V30 2057 H 188.63 -3.30538 2.61386 0
M  V30 2058 H 187.305 -2.86806 1.5008 0
M  V30 2059 H 186.212 -1.54828 3.40557 0
M  V30 2060 H 187.545 -2.05496 4.4725 0
M  V30 2061 N 189.197 -1.51736 -0.425897 0
M  V30 2062 C 190.16 -1.73271 -1.50032 0
M  V30 2063 C 191.16 -0.602639 -1.4908 0
M  V30 2064 O 192.35 -0.87033 -1.509 0
M  V30 2065 C 189.482 -1.79969 -2.89523 0
M  V30 2066 H 190.675 -2.69172 -1.32237 0
M  V30 2067 H 188.228 -1.41899 -0.65532 0
M  V30 2068 H 188.963 -0.859241 -3.1271 0
M  V30 2069 H 188.748 -2.62109 -2.91619 0
M  V30 2070 H 190.238 -1.9843 -3.67444 0
M  V30 2071 N 190.675 0.682077 -1.42076 0
M  V30 2072 C 191.638 1.77756 -1.44691 0
M  V30 2073 C 192.638 1.5726 -0.335535 0
M  V30 2074 O 193.828 1.63686 -0.596037 0
M  V30 2075 C 190.96 3.16301 -1.27146 0
M  V30 2076 H 192.153 1.76826 -2.42224 0
M  V30 2077 H 189.706 0.891012 -1.28416 0
M  V30 2078 H 190.441 3.22862 -0.305075 0
M  V30 2079 H 190.226 3.32581 -2.07683 0
M  V30 2080 H 191.716 3.96241 -1.31843 0
M  V30 2081 N 192.153 1.28127 0.917671 0
M  V30 2082 C 193.399 1.15223 1.66888 0
M  V30 2083 C 193.732 -0.299293 1.9188 0
M  V30 2084 O 193.007 -1.21805 1.51637 0
M  V30 2085 C 193.29 1.94706 3.02922 0
M  V30 2086 C 193.143 3.47898 2.85109 0
M  V30 2087 C 194.462 1.75939 4.03402 0
M  V30 2088 H 191.581 0.419946 0.605652 0
M  V30 2089 H 194.223 1.57398 1.06423 0
M  V30 2090 H 192.373 1.58864 3.54534 0
M  V30 2091 H 194.045 3.93624 2.40537 0
M  V30 2092 H 192.288 3.7373 2.20246 0
M  V30 2093 H 192.959 3.98765 3.81694 0
M  V30 2094 H 195.435 2.07209 3.60837 0
M  V30 2095 H 194.311 2.33931 4.96556 0
M  V30 2096 H 194.572 0.709877 4.36364 0
M  V30 2097 N 193.631 -1.12557 1.10312 0
M  V30 2098 C 194.579 -2.20325 0.745629 0
M  V30 2099 C 195.573 -1.67429 -0.25763 0
M  V30 2100 O 196.779 -1.79612 -0.118132 0
M  V30 2101 H 193.154 -0.718118 0.223182 0
M  V30 2102 H 195.125 -2.47733 1.66346 0
M  V30 2103 C 193.874 -3.47168 0.192262 0
M  V30 2104 H 193.197 -3.88215 0.955475 0
M  V30 2105 H 194.637 -4.23995 -0.0198274 0
M  V30 2106 C 193.096 -3.19298 -1.07472 0
M  V30 2107 O 193.626 -3.3891 -2.15645 0
M  V30 2108 N 191.832 -2.73113 -0.992847 0
M  V30 2109 H 191.379 -2.57354 -0.112474 0
M  V30 2110 H 191.337 -2.54842 -1.84127 0
M  V30 2111 N 195.109 -0.891671 -1.2995 0
M  V30 2112 C 196.039 -0.379797 -2.30391 0
M  V30 2113 C 197.02 0.540919 -1.6127 0
M  V30 2114 O 198.205 0.453352 -1.88834 0
M  V30 2115 C 195.335 0.400654 -3.44981 0
M  V30 2116 C 194.289 -0.428905 -4.25846 0
M  V30 2117 C 193.615 0.478557 -5.32554 0
M  V30 2118 C 194.915 -1.67458 -4.94727 0
M  V30 2119 H 196.609 -1.21914 -2.73454 0
M  V30 2120 H 194.155 -0.587675 -1.31462 0
M  V30 2121 H 196.108 0.769434 -4.14316 0
M  V30 2122 H 194.832 1.27371 -3.0074 0
M  V30 2123 H 193.491 -0.779911 -3.58208 0
M  V30 2124 H 193.139 1.34951 -4.84559 0
M  V30 2125 H 192.839 -0.0727433 -5.87555 0
M  V30 2126 H 194.363 0.843705 -6.04743 0
M  V30 2127 H 195.777 -1.376 -5.56542 0
M  V30 2128 H 194.174 -2.16659 -5.59624 0
M  V30 2129 H 195.244 -2.41518 -4.20473 0
M  V30 2130 N 196.587 1.43421 -0.653314 0
M  V30 2131 C 197.55 2.29182 0.0287951 0
M  V30 2132 C 198.55 1.42213 0.750465 0
M  V30 2133 O 199.74 1.63843 0.591701 0
M  V30 2134 C 196.872 3.24278 1.05151 0
M  V30 2135 H 198.065 2.90985 -0.725786 0
M  V30 2136 H 195.618 1.50702 -0.414545 0
M  V30 2137 H 196.353 2.6737 1.83532 0
M  V30 2138 H 196.138 3.88396 0.537687 0
M  V30 2139 H 197.628 3.88647 1.52786 0
M  V30 2140 N 198.065 0.39524 1.52563 0
M  V30 2141 C 199.012 -0.437036 2.26624 0
M  V30 2142 C 199.982 -1.05281 1.28472 0
M  V30 2143 O 201.167 -1.07971 1.57311 0
M  V30 2144 C 198.307 -1.55524 3.08069 0
M  V30 2145 C 197.42 -0.961745 4.21158 0
M  V30 2146 C 196.555 -2.05149 4.89987 0
M  V30 2147 C 195.594 -1.4342 5.95061 0
M  V30 2148 N 194.731 -2.46351 6.57462 0
M  V30 2149 H 199.571 0.200976 2.97322 0
M  V30 2150 H 197.108 0.110944 1.46681 0
M  V30 2151 H 199.066 -2.21437 3.53584 0
M  V30 2152 H 197.696 -2.16348 2.3957 0
M  V30 2153 H 196.748 -0.192048 3.79915 0
M  V30 2154 H 198.06 -0.470701 4.96574 0
M  V30 2155 H 197.214 -2.78819 5.38837 0
M  V30 2156 H 195.953 -2.57615 4.14109 0
M  V30 2157 H 194.958 -0.682774 5.45544 0
M  V30 2158 H 196.183 -0.917416 6.72875 0
M  V30 2159 H 194.129 -2.97975 5.8442 0
M  V30 2160 H 194.046 -2.02019 7.28508 0
M  V30 2161 H 195.314 -3.19633 7.10954 0
M  V30 2162 N 199.544 -1.57102 0.125237 0
M  V30 2163 C 200.769 -2.0019 -0.542101 0
M  V30 2164 C 201.194 -1.00449 -1.59034 0
M  V30 2165 O 200.552 0.0229423 -1.81285 0
M  V30 2166 C 200.6 -3.42129 -1.13929 0
M  V30 2167 O 199.704 -3.45307 -2.2547 0
M  V30 2168 H 199.045 -0.650171 -0.134812 0
M  V30 2169 H 201.575 -2.03461 0.215553 0
M  V30 2170 H 201.585 -3.80471 -1.4733 0
M  V30 2171 H 200.26 -4.14237 -0.371531 0
M  V30 2172 H 198.837 -3.1879 -1.93462 0
M  V30 2173 N 201.022 0.148545 -1.56898 0
M  V30 2174 C 202.271 0.85984 -1.82454 0
M  V30 2175 C 202.584 1.82406 -0.706229 0
M  V30 2176 O 203.79 2.57938 -0.847349 0
M  V30 2177 C 202.246 1.57967 -3.2338 0
M  V30 2178 C 201.854 0.65794 -4.43142 0
M  V30 2179 C 203.598 2.27784 -3.58211 0
M  V30 2180 C 201.505 1.3793 -5.75091 0
M  V30 2181 H 200.435 0.324834 -0.68044 0
M  V30 2182 H 203.086 0.112588 -1.83154 0
M  V30 2183 H 201.468 2.37249 -3.17063 0
M  V30 2184 H 202.642 -0.0995497 -4.60692 0
M  V30 2185 H 200.957 0.0682643 -4.16344 0
M  V30 2186 H 203.554 2.8239 -4.54048 0
M  V30 2187 H 203.897 3.04204 -2.84193 0
M  V30 2188 H 204.43 1.55421 -3.66182 0
M  V30 2189 H 201.169 0.656982 -6.52199 0
M  V30 2190 H 200.689 2.10954 -5.61479 0
M  V30 2191 H 202.368 1.92063 -6.17835 0
M  V30 2192 N 202.5 1.5196 0.417844 0
M  V30 2193 C 203.746 1.66793 1.16411 0
M  V30 2194 C 204.101 0.388758 1.88432 0
M  V30 2195 O 203.394 -0.616409 1.81414 0
M  V30 2196 C 203.588 2.82269 2.19223 0
M  V30 2197 C 203.417 4.21293 1.57297 0
M  V30 2198 C 202.187 4.86948 1.34944 0
M  V30 2199 C 204.385 5.03704 1.03858 0
M  V30 2200 N 202.367 6.1003 0.688195 0
M  V30 2201 C 203.738 6.1795 0.503742 0
M  V30 2202 C 205.793 4.89095 0.932203 0
M  V30 2203 C 204.496 7.19188 -0.127034 0
M  V30 2204 C 206.522 5.90559 0.315293 0
M  V30 2205 C 205.884 7.0409 -0.208906 0
M  V30 2206 H 201.983 0.66407 0.412959 0
M  V30 2207 H 204.567 1.89242 0.457772 0
M  V30 2208 H 202.738 2.61451 2.87225 0
M  V30 2209 H 204.47 2.86183 2.86149 0
M  V30 2210 H 201.225 4.45156 1.61657 0
M  V30 2211 H 201.649 6.75964 0.374449 0
M  V30 2212 H 206.291 4.01557 1.32332 0
M  V30 2213 H 204.009 8.06359 -0.530231 0
M  V30 2214 H 207.595 5.81327 0.234625 0
M  V30 2215 H 206.475 7.81257 -0.67875 0
M  V30 2216 N 203.978 -0.674533 1.42435 0
M  V30 2217 C 205.208 -1.46071 1.46105 0
M  V30 2218 C 205.616 -1.89067 0.0709605 0
M  V30 2219 O 204.959 -1.58731 -0.924677 0
M  V30 2220 C 205.021 -2.74145 2.32561 0
M  V30 2221 C 204.685 -2.53224 3.8043 0
M  V30 2222 C 205.682 -2.17809 4.72075 0
M  V30 2223 C 203.367 -2.6821 4.24698 0
M  V30 2224 C 205.361 -1.97648 6.05982 0
M  V30 2225 C 203.048 -2.47665 5.58664 0
M  V30 2226 C 204.046 -2.12437 6.49122 0
M  V30 2227 O 203.734 -1.9209 7.80613 0
M  V30 2228 H 203.466 -0.455959 0.499076 0
M  V30 2229 H 206.02 -0.836193 1.87609 0
M  V30 2230 H 204.25 -3.3908 1.85908 0
M  V30 2231 H 205.939 -3.36028 2.27683 0
M  V30 2232 H 206.705 -2.05826 4.39159 0
M  V30 2233 H 202.584 -2.94609 3.54579 0
M  V30 2234 H 206.128 -1.70075 6.7655 0
M  V30 2235 H 202.025 -2.59244 5.91154 0
M  V30 2236 H 202.793 -2.06686 7.91974 0
M  V30 2237 N 205.456 -1.28612 -0.910864 0
M  V30 2238 C 206.404 -1.1265 -2.03501 0
M  V30 2239 C 207.398 -0.0450054 -1.6934 0
M  V30 2240 O 208.604 -0.203988 -1.7884 0
M  V30 2241 H 204.979 -0.347639 -0.666822 0
M  V30 2242 H 206.95 -2.07849 -2.14106 0
M  V30 2243 C 205.699 -0.808143 -3.38178 0
M  V30 2244 H 205.022 -1.63231 -3.6496 0
M  V30 2245 H 206.462 -0.736426 -4.17556 0
M  V30 2246 C 204.921 0.488226 -3.33344 0
M  V30 2247 O 205.451 1.51766 -3.71927 0
M  V30 2248 N 203.657 0.490009 -2.86439 0
M  V30 2249 H 203.204 -0.348161 -2.55236 0
M  V30 2250 H 203.162 1.35741 -2.83587 0
M  V30 2251 N 206.934 1.1197 -1.10907 0
M  V30 2252 C 207.866 2.17592 -0.720175 0
M  V30 2253 C 208.879 1.60938 0.245495 0
M  V30 2254 O 210.068 1.78476 0.0292245 0
M  V30 2255 C 207.168 3.38873 -0.0427917 0
M  V30 2256 C 206.341 4.25006 -1.03388 0
M  V30 2257 C 205.4 5.24774 -0.387075 0
M  V30 2258 O 204.426 5.59631 -1.03934 0
M  V30 2259 N 205.628 5.74208 0.852407 0
M  V30 2260 H 208.393 2.51567 -1.62893 0
M  V30 2261 H 205.954 1.27439 -0.998543 0
M  V30 2262 H 207.946 4.02703 0.401501 0
M  V30 2263 H 206.516 3.03007 0.768456 0
M  V30 2264 H 205.736 3.57716 -1.65629 0
M  V30 2265 H 207.024 4.79397 -1.70458 0
M  V30 2266 H 206.422 5.48062 1.40161 0
M  V30 2267 H 204.979 6.39901 1.23977 0
M  V30 2268 N 208.412 0.89855 1.29475 0
M  V30 2269 C 209.64 0.539261 1.99749 0
M  V30 2270 C 210.055 -0.875716 1.67262 0
M  V30 2271 O 209.412 -1.57786 0.917049 0
M  V30 2272 C 209.463 0.72061 3.54245 0
M  V30 2273 O 209.184 2.07989 3.8558 0
M  V30 2274 C 210.685 0.366118 4.41786 0
M  V30 2275 H 207.905 0.207047 0.638258 0
M  V30 2276 H 210.449 1.20758 1.65039 0
M  V30 2277 H 208.604 0.0994862 3.87272 0
M  V30 2278 H 209.018 2.10841 4.80257 0
M  V30 2279 H 210.492 0.543848 5.49314 0
M  V30 2280 H 210.969 -0.696763 4.33638 0
M  V30 2281 H 211.575 0.964135 4.14228 0
M  V30 2282 N 209.89 -1.43072 0.660911 0
M  V30 2283 C 211.301 -1.84932 0.256348 0
M  V30 2284 C 211.652 -1.55325 -1.19868 0
M  V30 2285 O 210.777 -1.00607 -1.91591 0
M  V30 2286 C 211.372 -3.35684 0.458475 0
M  V30 2287 C 209.931 -3.76245 0.108161 0
M  V30 2288 C 209.078 -2.66749 0.757641 0
M  V30 2289 H 212.029 -1.33116 0.864051 0
M  V30 2290 H 212.05 -3.79365 -0.293683 0
M  V30 2291 H 211.562 -3.572 1.51755 0
M  V30 2292 H 209.663 -3.60338 -0.948014 0
M  V30 2293 H 209.776 -4.76058 0.538992 0
M  V30 2294 H 208.14 -2.53989 0.190185 0
M  V30 2295 H 208.923 -2.91092 1.81989 0
M  V30 2296 N 211.368 -0.403325 -1.52352 0
M  V30 2297 C 212.316 0.439752 -2.28405 0
M  V30 2298 C 213.31 1.05089 -1.32863 0
M  V30 2299 O 214.516 0.989759 -1.50345 0
M  V30 2300 H 210.891 0.160587 -0.734653 0
M  V30 2301 H 212.862 -0.222983 -2.97566 0
M  V30 2302 C 211.611 1.54736 -3.11371 0
M  V30 2303 H 210.934 1.08643 -3.84755 0
M  V30 2304 H 212.374 2.1112 -3.67701 0
M  V30 2305 C 210.833 2.51141 -2.24566 0
M  V30 2306 O 211.363 3.54887 -1.88196 0
M  V30 2307 N 209.569 2.21213 -1.8845 0
M  V30 2308 H 209.116 1.36878 -2.18225 0
M  V30 2309 H 209.074 2.85963 -1.30662 0
M  V30 2310 N 212.846 1.57033 -0.133567 0
M  V30 2311 C 214.262 1.58035 0.222944 0
M  V30 2312 C 214.462 1.14713 1.6566 0
M  V30 2313 O 213.518 0.841218 2.38075 0
M  V30 2314 C 214.831 3.00691 -0.0236116 0
M  V30 2315 C 216.379 3.12973 0.0411512 0
M  V30 2316 C 216.854 4.57654 -0.177899 0
M  V30 2317 N 218.345 4.63033 -0.124365 0
M  V30 2318 C 219.08 5.72771 -0.268553 0
M  V30 2319 N 218.576 6.91206 -0.46972 0
M  V30 2320 N 220.369 5.61718 -0.2071 0
M  V30 2321 H 212.52 1.8349 -1.06981 0
M  V30 2322 H 214.783 0.848677 -0.422436 0
M  V30 2323 H 214.489 3.36726 -1.0153 0
M  V30 2324 H 214.363 3.70614 0.701808 0
M  V30 2325 H 216.75 2.76787 1.02338 0
M  V30 2326 H 216.831 2.45564 -0.716383 0
M  V30 2327 H 216.475 4.94542 -1.15717 0
M  V30 2328 H 216.405 5.23173 0.599797 0
M  V30 2329 H 218.896 3.7789 0.027011 0
M  V30 2330 H 219.209 7.70693 -0.570212 0
M  V30 2331 H 217.554 6.93156 -0.505876 0
M  V30 2332 H 220.745 4.68072 -0.0507986 0
M  V30 2333 H 220.918 6.47195 -0.322909 0
M  V30 2334 N 214.325 -0.140222 1.56975 0
M  V30 2335 C 215.288 -1.15689 1.97861 0
M  V30 2336 C 216.288 -1.3549 0.865974 0
M  V30 2337 O 217.478 -1.32367 1.13246 0
M  V30 2338 C 214.61 -2.51582 2.30042 0
M  V30 2339 H 215.803 -0.805971 2.88867 0
M  V30 2340 H 213.356 -0.383801 1.51515 0
M  V30 2341 H 214.091 -2.91632 1.41849 0
M  V30 2342 H 213.876 -2.38569 3.11171 0
M  V30 2343 H 215.366 -3.24792 2.62488 0
M  V30 2344 N 215.803 -1.52179 -0.40978 0
M  V30 2345 C 216.75 -1.75475 -1.49924 0
M  V30 2346 C 217.72 -0.597175 -1.54994 0
M  V30 2347 O 218.905 -0.834655 -1.71575 0
M  V30 2348 C 216.045 -1.9107 -2.87378 0
M  V30 2349 C 215.158 -3.18717 -2.91622 0
M  V30 2350 C 214.293 -3.24747 -4.20372 0
M  V30 2351 C 213.332 -4.46598 -4.18588 0
M  V30 2352 N 212.469 -4.50025 -5.38908 0
M  V30 2353 H 217.309 -2.68458 -1.29361 0
M  V30 2354 H 214.846 -1.33024 -0.627934 0
M  V30 2355 H 216.804 -1.98096 -3.6717 0
M  V30 2356 H 215.434 -1.01469 -3.06437 0
M  V30 2357 H 214.486 -3.20866 -2.04326 0
M  V30 2358 H 215.798 -4.08544 -2.86169 0
M  V30 2359 H 214.952 -3.30841 -5.08556 0
M  V30 2360 H 213.691 -2.32857 -4.28519 0
M  V30 2361 H 212.696 -4.40652 -3.28794 0
M  V30 2362 H 213.921 -5.39783 -4.12081 0
M  V30 2363 H 211.867 -3.61017 -5.47725 0
M  V30 2364 H 211.784 -5.33697 -5.35447 0
M  V30 2365 H 213.052 -4.60347 -6.29048 0
M  V30 2366 N 217.281 0.66697 -1.42791 0
M  V30 2367 C 218.697 0.981027 -1.25889 0
M  V30 2368 C 218.897 2.00793 -0.168695 0
M  V30 2369 O 217.953 2.48321 0.45747 0
M  V30 2370 C 219.266 1.47838 -2.61848 0
M  V30 2371 C 220.814 1.59575 -2.69267 0
M  V30 2372 C 221.289 2.12704 -4.05612 0
M  V30 2373 N 222.78 2.20026 -4.07606 0
M  V30 2374 C 223.515 2.62227 -5.09926 0
M  V30 2375 N 223.011 3.03824 -6.22626 0
M  V30 2376 N 224.804 2.62045 -4.97281 0
M  V30 2377 H 216.955 -0.0127891 -2.12396 0
M  V30 2378 H 219.218 0.0568258 -0.946295 0
M  V30 2379 H 218.924 0.798299 -3.4252 0
M  V30 2380 H 218.798 2.45579 -2.86305 0
M  V30 2381 H 221.185 2.26687 -1.88936 0
M  V30 2382 H 221.266 0.60302 -2.48591 0
M  V30 2383 H 220.91 1.46198 -4.86404 0
M  V30 2384 H 220.84 3.12782 -4.23645 0
M  V30 2385 H 223.331 1.90708 -3.2625 0
M  V30 2386 H 223.644 3.34734 -6.96544 0
M  V30 2387 H 221.989 3.01662 -6.26119 0
M  V30 2388 H 225.18 2.28916 -4.08308 0
M  V30 2389 H 225.353 2.94613 -5.77154 0
M  V30 2390 N 218.759 1.29093 0.90403 0
M  V30 2391 C 220.005 1.16986 1.65656 0
M  V30 2392 C 220.338 -0.278925 1.92186 0
M  V30 2393 O 219.613 -1.2019 1.5292 0
M  V30 2394 C 219.896 1.97908 3.0084 0
M  V30 2395 C 219.749 3.50903 2.81403 0
M  V30 2396 C 221.068 1.80208 4.01513 0
M  V30 2397 H 218.187 0.426346 0.601164 0
M  V30 2398 H 220.829 1.58518 1.04747 0
M  V30 2399 H 218.979 1.62616 3.52829 0
M  V30 2400 H 220.651 3.96153 2.36348 0
M  V30 2401 H 218.894 3.76045 2.1627 0
M  V30 2402 H 219.565 4.02791 3.77443 0
M  V30 2403 H 222.041 2.11025 3.58619 0
M  V30 2404 H 220.917 2.39184 4.94047 0
M  V30 2405 H 221.178 0.756119 4.35586 0
M  V30 2406 N 220.237 -1.11381 1.11499 0
M  V30 2407 C 221.486 -1.82494 0.858993 0
M  V30 2408 C 221.799 -1.85605 -0.617278 0
M  V30 2409 O 223.005 -2.52824 -0.989552 0
M  V30 2410 C 221.461 -3.27745 1.48699 0
M  V30 2411 C 221.069 -3.32961 2.99735 0
M  V30 2412 C 222.813 -4.03754 1.31085 0
M  V30 2413 C 220.72 -4.72612 3.55516 0
M  V30 2414 H 219.65 -0.683802 0.317696 0
M  V30 2415 H 222.301 -1.25331 1.34031 0
M  V30 2416 H 220.683 -3.84844 0.933339 0
M  V30 2417 H 221.857 -2.85741 3.61509 0
M  V30 2418 H 220.172 -2.70433 3.16631 0
M  V30 2419 H 222.769 -5.06891 1.70192 0
M  V30 2420 H 223.112 -4.15527 0.253496 0
M  V30 2421 H 223.645 -3.53043 1.83318 0
M  V30 2422 H 220.384 -4.66036 4.60967 0
M  V30 2423 H 219.904 -5.2024 2.98513 0
M  V30 2424 H 221.583 -5.4157 3.53992 0
M  V30 2425 N 221.715 -0.905404 -1.28997 0
M  V30 2426 C 222.943 -0.549846 -1.9946 0
M  V30 2427 C 223.358 0.866834 -1.67724 0
M  V30 2428 O 222.715 1.57298 -0.925404 0
M  V30 2429 C 222.766 -0.739387 -3.53858 0
M  V30 2430 O 222.487 -2.10031 -3.84472 0
M  V30 2431 C 223.988 -0.389541 -4.41585 0
M  V30 2432 H 221.208 -0.210429 -0.637151 0
M  V30 2433 H 223.752 -1.21632 -1.64396 0
M  V30 2434 H 221.907 -0.120023 -3.87214 0
M  V30 2435 H 222.321 -2.13385 -4.79132 0
M  V30 2436 H 223.795 -0.572972 -5.49018 0
M  V30 2437 H 224.272 0.673756 -4.34001 0
M  V30 2438 H 224.878 -0.986089 -4.1371 0
M  V30 2439 N 223.193 1.4272 -0.668489 0
M  V30 2440 C 224.421 2.05966 -0.196348 0
M  V30 2441 C 224.836 1.50191 1.14403 0
M  V30 2442 O 224.193 0.639208 1.7094 0
M  V30 2443 C 224.244 3.61314 -0.115815 0
M  V30 2444 O 223.965 4.1502 -1.40322 0
M  V30 2445 C 225.466 4.41663 0.380579 0
M  V30 2446 H 222.686 0.663954 -0.0969829 0
M  V30 2447 H 225.23 1.82966 -0.913446 0
M  V30 2448 H 223.385 3.83448 0.551931 0
M  V30 2449 H 223.799 5.08832 -1.27243 0
M  V30 2450 H 225.273 5.5065 0.385848 0
M  V30 2451 H 225.75 4.15792 1.41471 0
M  V30 2452 H 226.356 4.24534 -0.255209 0
M  V30 2453 N 224.671 0.411399 1.52136 0
M  V30 2454 C 225.918 -0.163645 2.01838 0
M  V30 2455 C 226.246 -1.4495 1.29691 0
M  V30 2456 O 225.501 -1.91725 0.392431 0
M  V30 2457 C 225.8 -0.455872 3.54481 0
M  V30 2458 C 225.466 0.741055 4.44769 0
M  V30 2459 C 224.128 1.06936 4.69167 0
M  V30 2460 C 226.48 1.54075 4.97906 0
M  V30 2461 C 223.808 2.19851 5.43951 0
M  V30 2462 C 226.16 2.66067 5.73926 0
M  V30 2463 C 224.824 2.99381 5.96596 0
M  V30 2464 H 224.094 -0.0598821 0.738576 0
M  V30 2465 H 226.741 0.553283 1.83333 0
M  V30 2466 H 225.046 -1.2544 3.71177 0
M  V30 2467 H 226.743 -0.913802 3.90449 0
M  V30 2468 H 223.333 0.475192 4.25958 0
M  V30 2469 H 227.517 1.30033 4.78963 0
M  V30 2470 H 222.773 2.46006 5.59724 0
M  V30 2471 H 226.947 3.28419 6.14096 0
M  V30 2472 H 224.574 3.86992 6.54325 0
M  V30 2473 N 226.149 -1.5696 0.141893 0
M  V30 2474 C 227.565 -1.58151 -0.21456 0
M  V30 2475 C 227.765 -1.1559 -1.65049 0
M  V30 2476 O 226.821 -0.853832 -2.37626 0
M  V30 2477 C 228.134 -3.00674 0.0395576 0
M  V30 2478 C 229.682 -3.1299 -0.0245529 0
M  V30 2479 C 230.157 -4.57554 0.202167 0
M  V30 2480 N 231.648 -4.62961 0.148919 0
M  V30 2481 C 232.383 -5.7262 0.298924 0
M  V30 2482 N 231.879 -6.90947 0.50637 0
M  V30 2483 N 233.672 -5.61601 0.236886 0
M  V30 2484 H 225.823 -1.8292 1.07953 0
M  V30 2485 H 228.086 -0.846425 0.42693 0
M  V30 2486 H 227.792 -3.36183 1.03315 0
M  V30 2487 H 227.666 -3.70981 -0.682143 0
M  V30 2488 H 230.053 -2.77326 -1.00869 0
M  V30 2489 H 230.134 -2.4518 0.729396 0
M  V30 2490 H 229.778 -4.93922 1.18338 0
M  V30 2491 H 229.708 -5.23484 -0.572044 0
M  V30 2492 H 232.199 -3.77899 -0.00697015 0
M  V30 2493 H 232.512 -7.7038 0.611076 0
M  V30 2494 H 230.857 -6.92878 0.542628 0
M  V30 2495 H 234.048 -4.68039 0.0756209 0
M  V30 2496 H 234.221 -6.47015 0.357227 0
M  V30 2497 N 227.627 0.131896 -1.57047 0
M  V30 2498 C 228.855 0.856461 -1.88341 0
M  V30 2499 C 229.27 1.74042 -0.731757 0
M  V30 2500 O 228.627 1.80051 0.297945 0
M  V30 2501 C 228.678 1.70064 -3.18999 0
M  V30 2502 O 228.399 0.852278 -4.2973 0
M  V30 2503 C 229.9 2.53148 -3.63911 0
M  V30 2504 H 227.12 0.246885 -0.62393 0
M  V30 2505 H 229.664 0.120152 -2.04147 0
M  V30 2506 H 227.819 2.38984 -3.04902 0
M  V30 2507 H 228.233 1.43329 -5.04537 0
M  V30 2508 H 229.707 3.07931 -4.58129 0
M  V30 2509 H 230.184 3.29901 -2.89935 0
M  V30 2510 H 230.79 1.89492 -3.80753 0
M  V30 2511 N 229.106 1.52395 0.401703 0
M  V30 2512 C 230.354 1.66488 1.14569 0
M  V30 2513 C 230.675 0.400897 1.90835 0
M  V30 2514 O 229.945 -0.584415 1.8698 0
M  V30 2515 H 228.525 0.613672 0.425929 0
M  V30 2516 H 231.187 1.89464 0.457093 0
M  V30 2517 H 230.283 2.50942 1.85566 0
M  V30 2518 N 230.584 -0.659388 1.43143 0
M  V30 2519 C 231.812 -1.44723 1.47861 0
M  V30 2520 C 232.227 -1.88563 0.0945886 0
M  V30 2521 O 231.584 -1.59108 -0.893915 0
M  V30 2522 C 231.635 -2.68627 2.41913 0
M  V30 2523 O 231.356 -2.26623 3.74932 0
M  V30 2524 C 232.857 -3.62045 2.55809 0
M  V30 2525 H 230.077 -0.444801 0.502387 0
M  V30 2526 H 232.621 -0.808916 1.87821 0
M  V30 2527 H 230.776 -3.28613 2.05164 0
M  V30 2528 H 231.19 -3.06745 4.2545 0
M  V30 2529 H 232.664 -4.45666 3.25708 0
M  V30 2530 H 233.141 -4.08981 1.60099 0
M  V30 2531 H 233.747 -3.07944 2.93344 0
M  V30 2532 N 232.062 -1.29571 -0.897171 0
M  V30 2533 C 233.308 -1.18873 -1.65048 0
M  V30 2534 C 233.663 0.256707 -1.9068 0
M  V30 2535 O 232.956 1.18202 -1.50794 0
M  V30 2536 C 233.15 -1.9382 -3.00281 0
M  V30 2537 C 232.979 -3.45503 -2.8785 0
M  V30 2538 C 231.749 -4.14856 -2.88483 0
M  V30 2539 C 233.947 -4.40956 -2.64693 0
M  V30 2540 N 231.929 -5.52886 -2.66815 0
M  V30 2541 C 233.3 -5.66464 -2.5203 0
M  V30 2542 C 235.355 -4.3069 -2.49821 0
M  V30 2543 C 234.058 -6.82871 -2.26008 0
M  V30 2544 C 236.084 -5.46852 -2.25182 0
M  V30 2545 C 235.446 -6.71333 -2.13286 0
M  V30 2546 H 231.545 -0.489998 -0.609447 0
M  V30 2547 H 234.129 -1.63431 -1.05822 0
M  V30 2548 H 232.3 -1.51671 -3.57562 0
M  V30 2549 H 234.032 -1.75366 -3.64731 0
M  V30 2550 H 230.787 -3.66579 -2.99861 0
M  V30 2551 H 231.211 -6.25487 -2.59027 0
M  V30 2552 H 235.853 -3.35141 -2.5776 0
M  V30 2553 H 233.571 -7.78473 -2.16806 0
M  V30 2554 H 237.157 -5.40809 -2.14515 0
M  V30 2555 H 236.037 -7.59701 -1.94485 0
M  V30 2556 N 233.54 1.10788 -1.12088 0
M  V30 2557 C 234.817 1.79136 -0.785476 0
M  V30 2558 C 235.197 1.98246 0.725377 0
M  V30 2559 O 234.545 1.57258 1.65778 0
M  V30 2560 C 234.755 3.12375 -1.55636 0
M  V30 2561 C 236.103 3.8731 -1.74001 0
M  V30 2562 O 237.127 3.22085 -1.52117 0
M  V30 2563 O 235.986 5.04369 -2.10415 0
M  V30 2564 H 233.08 0.776226 -0.285311 0
M  V30 2565 H 235.626 1.1747 -1.2247 0
M  V30 2566 H 234.398 2.93863 -2.5838 0
M  V30 2567 H 234.021 3.81758 -1.11114 0
M  V30 2568 N 235.018 0.912232 1.28515 0
M  V30 2569 C 235.981 0.404223 2.25607 0
M  V30 2570 C 236.981 -0.468602 1.53821 0
M  V30 2571 O 238.171 -0.271873 1.72065 0
M  V30 2572 C 235.303 -0.420653 3.38295 0
M  V30 2573 H 236.496 1.26188 2.7206 0
M  V30 2574 H 234.049 0.691495 1.40171 0
M  V30 2575 H 234.784 -1.29777 2.97201 0
M  V30 2576 H 234.569 0.204935 3.91564 0
M  V30 2577 H 236.059 -0.766971 4.10496 0
M  V30 2578 N 236.496 -1.42363 0.676048 0
M  V30 2579 C 237.726 -2.05561 0.206967 0
M  V30 2580 C 238.134 -1.50887 -1.14148 0
M  V30 2581 O 237.477 -0.643933 -1.72044 0
M  V30 2582 C 237.539 -3.5944 0.0659508 0
M  V30 2583 C 237.203 -4.36812 1.34331 0
M  V30 2584 C 238.2 -4.67383 2.27704 0
M  V30 2585 C 235.885 -4.76429 1.59125 0
M  V30 2586 C 237.879 -5.36509 3.44147 0
M  V30 2587 C 235.566 -5.45294 2.75857 0
M  V30 2588 C 236.564 -5.75259 3.68193 0
M  V30 2589 O 236.252 -6.42712 4.82883 0
M  V30 2590 H 235.984 -0.668872 0.0979084 0
M  V30 2591 H 238.538 -1.83467 0.923531 0
M  V30 2592 H 236.768 -3.80197 -0.706204 0
M  V30 2593 H 238.457 -4.0427 -0.363418 0
M  V30 2594 H 239.223 -4.37275 2.09799 0
M  V30 2595 H 235.102 -4.52498 0.881258 0
M  V30 2596 H 238.646 -5.59814 4.16238 0
M  V30 2597 H 234.543 -5.7482 2.93688 0
M  V30 2598 H 235.311 -6.61204 4.82444 0
M  V30 2599 N 237.974 -0.419461 -1.51915 0
M  V30 2600 C 238.921 0.400927 -2.27291 0
M  V30 2601 C 239.891 1.03224 -1.30131 0
M  V30 2602 O 241.076 1.05455 -1.59009 0
M  V30 2603 C 238.216 1.50603 -3.10504 0
M  V30 2604 C 237.329 0.89462 -4.22635 0
M  V30 2605 C 236.464 1.97328 -4.93189 0
M  V30 2606 C 235.503 1.33935 -5.97267 0
M  V30 2607 N 234.64 2.3586 -6.61298 0
M  V30 2608 H 239.48 -0.248251 -2.96964 0
M  V30 2609 H 237.017 -0.134266 -1.46486 0
M  V30 2610 H 238.975 2.15783 -3.57062 0
M  V30 2611 H 237.605 2.12509 -2.42981 0
M  V30 2612 H 236.657 0.131583 -3.80172 0
M  V30 2613 H 237.969 0.391641 -4.9726 0
M  V30 2614 H 237.123 2.70211 -5.43204 0
M  V30 2615 H 235.862 2.50994 -4.18155 0
M  V30 2616 H 234.867 0.595896 -5.46561 0
M  V30 2617 H 236.092 0.810252 -6.74249 0
M  V30 2618 H 234.038 2.88639 -5.89087 0
M  V30 2619 H 233.955 1.90403 -7.3163 0
M  V30 2620 H 235.223 3.08282 -7.15949 0
M  V30 2621 N 239.452 1.56882 -0.150215 0
M  V30 2622 C 240.4 2.18214 0.805313 0
M  V30 2623 C 241.394 1.14006 1.25296 0
M  V30 2624 O 242.6 1.3225 1.22107 0
M  V30 2625 H 238.975 0.698762 0.277913 0
M  V30 2626 H 240.946 2.97231 0.263862 0
M  V30 2627 C 239.695 2.82065 2.03309 0
M  V30 2628 H 239.018 3.61968 1.69763 0
M  V30 2629 H 240.458 3.28477 2.68103 0
M  V30 2630 C 238.917 1.80739 2.84315 0
M  V30 2631 O 239.447 1.27983 3.80767 0
M  V30 2632 N 237.653 1.4997 2.48913 0
M  V30 2633 H 237.2 1.93062 1.70542 0
M  V30 2634 H 237.158 0.824217 3.03404 0
M  V30 2635 N 240.93 -0.123565 1.57115 0
M  V30 2636 C 241.86 -1.15309 2.03042 0
M  V30 2637 C 242.841 -1.43454 0.914061 0
M  V30 2638 O 244.026 -1.53973 1.18347 0
M  V30 2639 C 241.156 -2.48043 2.43089 0
M  V30 2640 C 240.11 -2.3437 3.58127 0
M  V30 2641 C 239.436 -3.72026 3.84059 0
M  V30 2642 C 240.736 -1.80804 4.90007 0
M  V30 2643 H 242.43 -0.771102 2.893 0
M  V30 2644 H 239.976 -0.369479 1.39179 0
M  V30 2645 H 241.929 -3.20311 2.73823 0
M  V30 2646 H 240.653 -2.88122 1.53796 0
M  V30 2647 H 239.312 -1.64551 3.27595 0
M  V30 2648 H 238.96 -4.09582 2.91979 0
M  V30 2649 H 238.66 -3.63732 4.6149 0
M  V30 2650 H 240.184 -4.45806 4.1724 0
M  V30 2651 H 241.598 -2.42886 5.19307 0
M  V30 2652 H 239.995 -1.83343 5.71407 0
M  V30 2653 H 241.065 -0.76528 4.78823 0
M  V30 2654 O 242.447 -1.59262 -0.267957 0
M  V30 2655 H 243.138 -1.70845 -0.912779 0
M  V30 END ATOM
M  V30 BEGIN BOND
M  V30 END BOND
M  V30 END CTAB
M  END
$$$$
