drugbank_target|P01857 Ig gamma-1 chain C region (DB01631; DB03740; DB04473; DB04639; DB07371; DB07375; DB07441; DB07672; DB07764; DB07816; DB07881; DB07883; DB07909; DB08294; DB08296; DB08332; DB08377; DB08394; DB08409; DB08410; DB08411; DB08412; DB08562; DB09130)
 OpenBabel12092120253D

  0  0  0     0  0            999 V3000
M  V30 BEGIN CTAB
M  V30 COUNTS 5061 5132 0 0 0
M  V30 BEGIN ATOM
M  V30 1 H -0.908 1.98254 -0.117106 0
M  V30 2 N 0 1.576 0 0
M  V30 3 C 0.963 2.07369 0.976253 0
M  V30 4 C 1.963 0.98309 1.27248 0
M  V30 5 O 3.153 1.24574 1.21766 0
M  V30 6 C 0.285 2.51514 2.30116 0
M  V30 7 H 1.478 2.94892 0.545759 0
M  V30 8 H -0.969 1.54328 0.247471 0
M  V30 9 H -0.234 1.67234 2.77855 0
M  V30 10 H -0.449 3.31163 2.09937 0
M  V30 11 H 1.041 2.90345 3.00149 0
M  V30 12 N 1.4781 -0.272755 1.55222 0
M  V30 13 C 2.7031 -1.02683 1.80197 0
M  V30 14 C 3.1281 -1.79142 0.573551 0
M  V30 15 O 2.4861 -1.74917 -0.476849 0
M  V30 16 C 2.5341 -1.9609 3.02624 0
M  V30 17 O 1.6381 -3.04863 2.77727 0
M  V30 18 H 0.9791 -0.293557 0.595584 0
M  V30 19 H 3.5091 -0.30159 2.02365 0
M  V30 20 H 3.5191 -2.38039 3.31363 0
M  V30 21 H 2.1941 -1.39851 3.91682 0
M  V30 22 H 0.7711 -2.67228 2.60084 0
M  V30 23 N 2.9562 -1.48159 -0.537278 0
M  V30 24 C 4.1842 -1.59454 -1.31841 0
M  V30 25 C 4.5992 -0.252065 -1.8711 0
M  V30 26 O 3.9562 0.757621 -1.66031 0
M  V30 27 C 4.0072 -2.63546 -2.47439 0
M  V30 28 O 3.7282 -3.92583 -1.94449 0
M  V30 29 C 5.2292 -2.85212 -3.39366 0
M  V30 30 H 2.4492 -0.53785 -0.401196 0
M  V30 31 H 4.9932 -1.93932 -0.648891 0
M  V30 32 H 3.1482 -2.31946 -3.1029 0
M  V30 33 H 3.5622 -4.49629 -2.70063 0
M  V30 34 H 5.0362 -3.61863 -4.16844 0
M  V30 35 H 5.5132 -1.93765 -3.94147 0
M  V30 36 H 6.1192 -3.18086 -2.82314 0
M  V30 37 N 4.4343 0.785586 -1.36625 0
M  V30 38 C 5.3813 1.89838 -1.31264 0
M  V30 39 C 6.3513 1.65115 -0.180633 0
M  V30 40 O 7.5363 1.87222 -0.36777 0
M  V30 41 C 4.6763 3.26706 -1.11163 0
M  V30 42 C 3.7893 3.63476 -2.33472 0
M  V30 43 C 2.9243 4.89481 -2.06353 0
M  V30 44 C 1.9633 5.18941 -3.24602 0
M  V30 45 N 1.1003 6.36131 -2.97123 0
M  V30 46 H 5.9403 1.93756 -2.26413 0
M  V30 47 H 3.4773 0.947454 -1.12524 0
M  V30 48 H 5.4353 4.05639 -0.975337 0
M  V30 49 H 4.0653 3.222 -0.196674 0
M  V30 50 H 3.1173 2.79636 -2.57891 0
M  V30 51 H 4.4293 3.81193 -3.21704 0
M  V30 52 H 3.5833 5.76288 -1.89675 0
M  V30 53 H 2.3223 4.73841 -1.15437 0
M  V30 54 H 1.3273 4.30615 -3.41834 0
M  V30 55 H 2.5523 5.36498 -4.16349 0
M  V30 56 H 0.4983 6.21875 -2.08823 0
M  V30 57 H 0.4153 6.54198 -3.78894 0
M  V30 58 H 1.6833 7.2591 -2.84033 0
M  V30 59 N 5.9124 1.20967 1.01018 0
M  V30 60 C 7.1604 1.02172 1.74371 0
M  V30 61 C 7.4814 -0.446414 1.89821 0
M  V30 62 O 6.7514 -1.32234 1.44537 0
M  V30 63 H 5.3314 0.375066 0.646014 0
M  V30 64 H 7.9934 1.52187 1.21758 0
M  V30 65 H 7.0894 1.48538 2.74487 0
M  V30 66 N 7.3905 -1.2043 1.01659 0
M  V30 67 C 8.8015 -1.71517 0.737482 0
M  V30 68 C 9.1525 -1.81547 -0.743973 0
M  V30 69 O 8.2775 -1.47803 -1.58061 0
M  V30 70 C 8.8725 -3.11515 1.33206 0
M  V30 71 C 7.4315 -3.59912 1.10183 0
M  V30 72 C 6.5785 -2.37116 1.43776 0
M  V30 73 H 9.5295 -1.05444 1.18606 0
M  V30 74 H 9.5505 -3.73575 0.722636 0
M  V30 75 H 9.0625 -3.04182 2.41028 0
M  V30 76 H 7.1635 -3.72577 0.0412756 0
M  V30 77 H 7.2765 -4.44731 1.78188 0
M  V30 78 H 5.6405 -2.39857 0.856778 0
M  V30 79 H 6.4235 -2.32424 2.52654 0
M  V30 80 N 8.8686 -0.792821 -1.36206 0
M  V30 81 C 10.0936 -0.377701 -2.03932 0
M  V30 82 C 10.5186 0.998947 -1.59382 0
M  V30 83 O 9.8766 1.64421 -0.763903 0
M  V30 84 C 9.9246 -0.453635 -3.57735 0
M  V30 85 O 9.0286 0.538151 -4.08874 0
M  V30 86 H 8.3696 -0.159855 -0.644471 0
M  V30 87 H 10.8996 -1.07488 -1.7409 0
M  V30 88 H 10.9096 -0.318464 -4.06755 0
M  V30 89 H 9.5846 -1.45784 -3.89512 0
M  V30 90 H 8.1616 0.364359 -3.71116 0
M  V30 91 N 10.3467 1.47872 -0.545128 0
M  V30 92 C 11.5927 2.02793 -0.0166104 0
M  V30 93 C 11.9257 1.41987 1.32489 0
M  V30 94 O 11.2007 0.571045 1.85928 0
M  V30 95 C 11.4837 3.59989 0.0893294 0
M  V30 96 C 11.3367 4.3125 -1.27841 0
M  V30 97 C 12.6557 4.32606 0.808724 0
M  V30 98 H 9.7747 0.736962 -0.00751035 0
M  V30 99 H 12.4167 1.76433 -0.705085 0
M  V30 100 H 10.5667 3.82579 0.675681 0
M  V30 101 H 12.2387 4.20035 -1.90704 0
M  V30 102 H 10.4817 3.92076 -1.85632 0
M  V30 103 H 11.1527 5.39736 -1.15713 0
M  V30 104 H 13.6287 4.14936 0.310992 0
M  V30 105 H 12.5047 5.42251 0.851782 0
M  V30 106 H 12.7657 4.00963 1.86229 0
M  V30 107 N 11.8248 0.280983 1.55075 0
M  V30 108 C 13.0718 -0.334115 1.99725 0
M  V30 109 C 13.3998 -1.5542 1.1694 0
M  V30 110 O 12.6548 -1.94361 0.228531 0
M  V30 111 C 12.9538 -0.754656 3.49342 0
M  V30 112 C 12.6198 0.361445 4.49449 0
M  V30 113 C 11.2818 0.667893 4.76542 0
M  V30 114 C 13.6338 1.11322 5.09173 0
M  V30 115 C 10.9618 1.7296 5.60626 0
M  V30 116 C 13.3138 2.1647 5.9441 0
M  V30 117 C 11.9778 2.47742 6.19822 0
M  V30 118 H 11.2478 -0.122261 0.730844 0
M  V30 119 H 13.8948 0.395917 1.87363 0
M  V30 120 H 12.1998 -1.56446 3.5921 0
M  V30 121 H 13.8968 -1.24142 3.813 0
M  V30 122 H 10.4868 0.112481 4.28452 0
M  V30 123 H 14.6708 0.88973 4.8826 0
M  V30 124 H 9.9268 1.97684 5.78559 0
M  V30 125 H 14.1008 2.75193 6.3972 0
M  V30 126 H 11.7278 3.30145 6.84769 0
M  V30 127 N 13.3029 -1.57598 0.00835791 0
M  V30 128 C 14.7139 -1.7892 -0.53333 0
M  V30 129 C 15.0649 -0.916609 -1.73473 0
M  V30 130 O 14.1899 -0.121336 -2.1606 0
M  V30 131 C 14.7849 -3.24488 -0.974313 0
M  V30 132 C 13.3439 -3.46878 -1.46125 0
M  V30 133 C 12.4909 -2.74157 -0.416302 0
M  V30 134 H 15.4419 -1.56958 0.234495 0
M  V30 135 H 15.4629 -3.3306 -1.83988 0
M  V30 136 H 14.9749 -3.87972 -0.099718 0
M  V30 137 H 13.0759 -2.8862 -2.35646 0
M  V30 138 H 13.1889 -4.55572 -1.48295 0
M  V30 139 H 11.5529 -2.39022 -0.87981 0
M  V30 140 H 12.3359 -3.40345 0.44947 0
M  V30 141 N 14.781 0.264519 -1.55364 0
M  V30 142 C 15.711 1.33121 -1.91836 0
M  V30 143 C 16.692 1.51101 -0.781192 0
M  V30 144 O 17.877 1.64003 -1.04003 0
M  V30 145 C 15.007 2.68921 -2.19769 0
M  V30 146 C 13.961 2.65661 -3.35571 0
M  V30 147 C 13.287 4.05093 -3.49004 0
M  V30 148 C 14.587 2.24187 -4.71739 0
M  V30 149 H 16.281 1.02844 -2.81182 0
M  V30 150 H 13.827 0.493286 -1.35287 0
M  V30 151 H 15.78 3.43663 -2.43872 0
M  V30 152 H 14.504 3.00799 -1.27231 0
M  V30 153 H 13.163 1.93377 -3.1145 0
M  V30 154 H 12.811 4.34206 -2.53917 0
M  V30 155 H 12.511 4.03804 -4.26868 0
M  V30 156 H 14.035 4.81561 -3.75408 0
M  V30 157 H 15.449 2.88654 -4.9533 0
M  V30 158 H 13.846 2.34044 -5.52579 0
M  V30 159 H 14.916 1.19327 -4.69988 0
M  V30 160 N 16.2591 1.48442 0.529413 0
M  V30 161 C 17.2221 1.62524 1.61612 0
M  V30 162 C 18.2221 0.498509 1.52877 0
M  V30 163 O 19.4121 0.76431 1.56537 0
M  V30 164 C 16.5441 1.59597 3.01233 0
M  V30 165 H 17.7371 2.59423 1.50465 0
M  V30 166 H 15.2901 1.37047 0.751514 0
M  V30 167 H 16.0251 0.641781 3.17886 0
M  V30 168 H 15.8101 2.41397 3.08982 0
M  V30 169 H 17.3001 1.72646 3.80241 0
M  V30 170 N 17.7372 -0.778329 1.37039 0
M  V30 171 C 19.1482 -1.35421 1.28523 0
M  V30 172 C 19.4992 -1.96075 -0.0700901 0
M  V30 173 O 18.6242 -1.93352 -0.971801 0
M  V30 174 C 19.2192 -2.46211 2.32735 0
M  V30 175 C 17.7782 -2.99585 2.27873 0
M  V30 176 C 16.9252 -1.72748 2.16918 0
M  V30 177 H 19.8762 -0.5791 1.47757 0
M  V30 178 H 19.8972 -3.2552 1.9702 0
M  V30 179 H 19.4092 -2.02036 3.31365 0
M  V30 180 H 17.5102 -3.48152 1.32745 0
M  V30 181 H 17.6232 -3.55646 3.21018 0
M  V30 182 H 15.9872 -1.95416 1.63354 0
M  V30 183 H 16.7702 -1.30686 3.17452 0
M  V30 184 N 19.2153 -1.21501 -1.00376 0
M  V30 185 C 20.4403 -1.05977 -1.78279 0
M  V30 186 C 20.8653 0.385994 -1.84097 0
M  V30 187 O 20.2233 1.27849 -1.28547 0
M  V30 188 C 20.2713 -1.66302 -3.19963 0
M  V30 189 O 19.3753 -0.909333 -4.0225 0
M  V30 190 H 18.7163 -0.372906 -0.549397 0
M  V30 191 H 21.2463 -1.6107 -1.26165 0
M  V30 192 H 21.2563 -1.70574 -3.70632 0
M  V30 193 H 19.9313 -2.71515 -3.15043 0
M  V30 194 H 18.5083 -0.941795 -3.60811 0
M  V30 195 N 20.6934 1.19889 -1.02296 0
M  V30 196 C 21.9184 1.9393 -0.735237 0
M  V30 197 C 22.3434 1.74639 0.698782 0
M  V30 198 O 21.7014 1.04481 1.48167 0
M  V30 199 C 21.7494 3.43916 -1.08417 0
M  V30 200 O 20.8534 4.11917 -0.199446 0
M  V30 201 H 20.1944 0.605645 -0.272196 0
M  V30 202 H 22.7244 1.52137 -1.36804 0
M  V30 203 H 22.7344 3.9456 -1.03856 0
M  V30 204 H 21.4094 3.5728 -2.12894 0
M  V30 205 H 19.9864 3.71666 -0.303136 0
M  V30 206 N 22.1715 0.800033 1.35784 0
M  V30 207 C 23.1185 0.203848 2.29898 0
M  V30 208 C 24.0885 -0.658375 1.52495 0
M  V30 209 O 25.2735 -0.604832 1.8096 0
M  V30 210 C 22.4135 -0.64688 3.38983 0
M  V30 211 C 21.5265 0.235054 4.3136 0
M  V30 212 C 20.6615 -0.623054 5.27533 0
M  V30 213 C 19.7005 0.259682 6.11549 0
M  V30 214 N 18.8375 -0.558019 6.99879 0
M  V30 215 H 23.6775 1.01186 2.80295 0
M  V30 216 H 21.2145 0.51053 1.37957 0
M  V30 217 H 23.1725 -1.15521 4.00887 0
M  V30 218 H 21.8025 -1.42021 2.89879 0
M  V30 219 H 20.8545 0.861438 3.70518 0
M  V30 220 H 22.1665 0.914768 4.9034 0
M  V30 221 H 21.3205 -1.19678 5.94779 0
M  V30 222 H 20.0595 -1.33636 4.69034 0
M  V30 223 H 19.0645 0.845726 5.43256 0
M  V30 224 H 20.2895 0.970748 6.72126 0
M  V30 225 H 18.2355 -1.25542 6.43875 0
M  V30 226 H 18.1525 0.0637872 7.55973 0
M  V30 227 H 19.4205 -1.11523 7.71481 0
M  V30 228 N 23.6496 -1.47581 0.552962 0
M  V30 229 C 24.8746 -2.07378 0.0300593 0
M  V30 230 C 25.2996 -1.40355 -1.25229 0
M  V30 231 O 24.6576 -0.477099 -1.7491 0
M  V30 232 C 24.7056 -3.60274 -0.153231 0
M  V30 233 O 23.8096 -3.94041 -1.21678 0
M  V30 234 H 23.1506 -0.662158 0.0494182 0
M  V30 235 H 25.6806 -1.89662 0.767434 0
M  V30 236 H 25.6906 -4.0633 -0.368761 0
M  V30 237 H 24.3656 -4.08455 0.783397 0
M  V30 238 H 22.9426 -3.59735 -0.982079 0
M  V30 239 N 25.1277 -0.289203 -1.54924 0
M  V30 240 C 26.3557 0.326463 -2.04308 0
M  V30 241 C 26.7707 1.48413 -1.16701 0
M  V30 242 O 26.1277 1.81507 -0.190087 0
M  V30 243 C 26.1787 0.794014 -3.52672 0
M  V30 244 O 25.8997 -0.317564 -4.36948 0
M  V30 245 C 27.4007 1.47605 -4.18004 0
M  V30 246 H 24.6207 0.0726272 -0.667058 0
M  V30 247 H 27.1647 -0.425401 -2.00026 0
M  V30 248 H 25.3197 1.49593 -3.57352 0
M  V30 249 H 25.7337 0.0443186 -5.24481 0
M  V30 250 H 27.2077 1.75447 -5.23376 0
M  V30 251 H 27.6847 2.41224 -3.67025 0
M  V30 252 H 28.2907 0.81762 -4.17367 0
M  V30 253 N 26.6058 1.57591 -0.0167156 0
M  V30 254 C 27.8308 1.9598 0.67872 0
M  V30 255 C 28.2558 0.892546 1.65575 0
M  V30 256 O 27.6138 -0.147772 1.80697 0
M  V30 257 C 27.6618 3.33468 1.37227 0
M  V30 258 O 26.7658 3.28954 2.48722 0
M  V30 259 H 26.1068 0.639339 0.17928 0
M  V30 260 H 28.6368 2.04463 -0.0748802 0
M  V30 261 H 28.6468 3.69417 1.7319 0
M  V30 262 H 27.3218 4.10694 0.656007 0
M  V30 263 H 25.8988 3.04705 2.14963 0
M  V30 264 N 28.0839 -0.256276 1.55502 0
M  V30 265 C 29.3319 -0.983672 1.76545 0
M  V30 266 C 29.6529 -1.86206 0.578982 0
M  V30 267 O 28.9229 -1.91656 -0.405577 0
M  V30 268 H 27.5029 -0.366191 0.651086 0
M  V30 269 H 30.1649 -0.276479 1.92929 0
M  V30 270 H 29.2609 -1.61087 2.67315 0
M  V30 271 N 29.562 -1.4872 -0.521534 0
M  V30 272 C 30.81 -1.56857 -1.27437 0
M  V30 273 C 31.131 -0.247982 -1.93417 0
M  V30 274 O 30.401 0.731151 -1.81744 0
M  V30 275 H 28.981 -0.577885 -0.473347 0
M  V30 276 H 31.643 -1.85233 -0.606205 0
M  V30 277 H 30.739 -2.35402 -2.0492 0
M  V30 278 N 31.0401 0.771051 -1.3745 0
M  V30 279 C 32.2681 1.56015 -1.35893 0
M  V30 280 C 32.6831 1.88718 0.0555523 0
M  V30 281 O 32.0401 1.51502 1.01752 0
M  V30 282 C 32.0911 2.87001 -2.19801 0
M  V30 283 O 31.8121 2.557 -3.55738 0
M  V30 284 C 33.3131 3.81228 -2.26231 0
M  V30 285 H 30.5331 0.483317 -0.465453 0
M  V30 286 H 33.0771 0.955611 -1.80799 0
M  V30 287 H 31.2321 3.43877 -1.78402 0
M  V30 288 H 31.6461 3.39584 -3.99729 0
M  V30 289 H 33.1201 4.70139 -2.89263 0
M  V30 290 H 33.5971 4.20409 -1.27093 0
M  V30 291 H 34.2031 3.30281 -2.67945 0
M  V30 292 N 32.5182 1.22032 0.997298 0
M  V30 293 C 33.4812 0.987909 2.06816 0
M  V30 294 C 34.4812 -0.0440084 1.6074 0
M  V30 295 O 35.6712 0.194053 1.73116 0
M  V30 296 C 32.8032 0.49132 3.37341 0
M  V30 297 H 33.9962 1.93803 2.28868 0
M  V30 298 H 31.5492 1.03838 1.16822 0
M  V30 299 H 32.2842 -0.463364 3.20973 0
M  V30 300 H 32.0692 1.23575 3.72118 0
M  V30 301 H 33.5592 0.348824 4.16141 0
M  V30 302 N 33.9963 -1.19345 1.0293 0
M  V30 303 C 34.9593 -2.20793 0.615069 0
M  V30 304 C 35.9593 -1.57553 -0.321533 0
M  V30 305 O 37.1493 -1.73862 -0.108483 0
M  V30 306 C 34.2813 -3.40754 -0.0999222 0
M  V30 307 H 35.4743 -2.58955 1.51269 0
M  V30 308 H 33.0273 -1.3303 0.820534 0
M  V30 309 H 33.7623 -3.0811 -1.01187 0
M  V30 310 H 33.5473 -3.87889 0.57309 0
M  V30 311 H 35.0373 -4.15898 -0.376645 0
M  V30 312 N 35.4744 -0.807222 -1.35358 0
M  V30 313 C 36.4044 -0.232509 -2.3234 0
M  V30 314 C 37.3854 0.642386 -1.57504 0
M  V30 315 O 38.5704 0.572526 -1.85569 0
M  V30 316 C 35.7004 0.619238 -3.41735 0
M  V30 317 C 34.6544 -0.157215 -4.27711 0
M  V30 318 C 33.9804 0.816273 -5.28433 0
M  V30 319 C 35.2804 -1.35656 -5.04376 0
M  V30 320 H 36.9744 -1.04276 -2.80654 0
M  V30 321 H 34.5204 -0.50288 -1.34934 0
M  V30 322 H 36.4734 1.03137 -4.08584 0
M  V30 323 H 35.1974 1.46239 -2.92031 0
M  V30 324 H 33.8564 -0.550525 -3.62443 0
M  V30 325 H 33.5044 1.65494 -4.74996 0
M  V30 326 H 33.2044 0.301067 -5.86828 0
M  V30 327 H 34.7284 1.22659 -5.98153 0
M  V30 328 H 36.1424 -1.01927 -5.64166 0
M  V30 329 H 34.5394 -1.8063 -5.7227 0
M  V30 330 H 35.6094 -2.14288 -4.34981 0
M  V30 331 N 36.9525 1.47285 -0.560781 0
M  V30 332 C 38.2005 2.02064 -0.0379868 0
M  V30 333 C 38.5215 1.43711 1.31803 0
M  V30 334 O 37.7915 0.61362 1.86042 0
M  V30 335 H 36.3715 0.746918 -0.0110531 0
M  V30 336 H 39.0335 1.80648 -0.731598 0
M  V30 337 H 38.1295 3.12064 0.0474463 0
M  V30 338 N 38.4306 0.297415 1.54768 0
M  V30 339 C 39.6706 -0.313829 2.01976 0
M  V30 340 C 40.0346 -1.51366 1.1812 0
M  V30 341 O 41.2356 -2.19603 1.5501 0
M  V30 342 C 39.5066 -0.664964 3.51159 0
M  V30 343 S 41.0656 -1.25958 4.20333 0
M  V30 344 H 37.8836 -0.0965014 0.704421 0
M  V30 345 H 40.4856 0.424451 1.90837 0
M  V30 346 H 39.1896 0.21681 4.09827 0
M  V30 347 H 38.7206 -1.43413 3.66328 0
M  V30 348 H 40.7356 -2.54751 4.25813 0
M  V30 349 N 39.9087 -1.5758 0.0250728 0
M  V30 350 C 40.8387 -2.13007 -0.956575 0
M  V30 351 C 41.8197 -1.0452 -1.342 0
M  V30 352 O 43.0047 -1.32332 -1.42133 0
M  V30 353 C 40.1347 -2.65386 -2.24026 0
M  V30 354 C 39.0887 -3.78623 -1.99571 0
M  V30 355 C 38.4147 -4.17414 -3.3417 0
M  V30 356 C 39.7147 -5.04867 -1.33814 0
M  V30 357 H 41.4087 -2.9528 -0.494991 0
M  V30 358 H 38.9547 -1.42042 -0.236651 0
M  V30 359 H 40.9077 -3.02794 -2.93076 0
M  V30 360 H 39.6317 -1.80268 -2.72343 0
M  V30 361 H 38.2907 -3.41646 -1.32941 0
M  V30 362 H 37.9387 -3.29284 -3.80238 0
M  V30 363 H 37.6387 -4.93719 -3.18615 0
M  V30 364 H 39.1627 -4.57402 -4.04495 0
M  V30 365 H 40.5767 -5.39888 -1.92857 0
M  V30 366 H 38.9737 -5.86144 -1.28669 0
M  V30 367 H 40.0437 -4.83904 -0.310561 0
M  V30 368 N 41.3868 0.248026 -1.55636 0
M  V30 369 C 42.6328 0.97767 -1.77678 0
M  V30 370 C 42.9658 1.85016 -0.590135 0
M  V30 371 O 42.2408 1.90095 0.411611 0
M  V30 372 C 42.5238 1.83914 -3.09593 0
M  V30 373 C 42.3768 0.99491 -4.38659 0
M  V30 374 C 43.6958 2.82183 -3.37729 0
M  V30 375 H 40.8148 0.354005 -0.646413 0
M  V30 376 H 43.4568 0.248253 -1.88371 0
M  V30 377 H 41.6068 2.46104 -3.00608 0
M  V30 378 H 43.2788 0.391789 -4.59633 0
M  V30 379 H 41.5218 0.299231 -4.32767 0
M  V30 380 H 42.1928 1.63145 -5.2734 0
M  V30 381 H 44.6688 2.30129 -3.4667 0
M  V30 382 H 43.5448 3.39582 -4.31249 0
M  V30 383 H 43.8058 3.58588 -2.58586 0
M  V30 384 N 42.8649 1.48995 0.513639 0
M  V30 385 C 43.8119 1.6473 1.61656 0
M  V30 386 C 44.7819 0.488984 1.58739 0
M  V30 387 O 45.9669 0.714478 1.76918 0
M  V30 388 C 43.1069 1.7082 2.99858 0
M  V30 389 C 42.2199 2.9787 3.12885 0
M  V30 390 C 41.3549 2.95017 4.41744 0
M  V30 391 C 40.3939 4.16702 4.48359 0
M  V30 392 N 39.5309 4.11832 5.68629 0
M  V30 393 H 44.3709 2.58909 1.47547 0
M  V30 394 H 41.9079 1.28382 0.71808 0
M  V30 395 H 43.8659 1.72331 3.79944 0
M  V30 396 H 42.4959 0.801181 3.12699 0
M  V30 397 H 41.5479 3.06029 2.25944 0
M  V30 398 H 42.8599 3.8786 3.13633 0
M  V30 399 H 42.0139 2.95021 5.30139 0
M  V30 400 H 40.7529 2.02784 4.43542 0
M  V30 401 H 39.7579 4.16955 3.58369 0
M  V30 402 H 40.9829 5.10113 4.48287 0
M  V30 403 H 38.9289 3.22428 5.71293 0
M  V30 404 H 38.8459 4.95543 5.7094 0
M  V30 405 H 40.1139 4.1592 6.59266 0
M  V30 406 N 44.343 -0.763751 1.37857 0
M  V30 407 C 45.62 -1.51244 1.24035 0
M  V30 408 C 46 -2.10472 -0.162649 0
M  V30 409 O 45.348 -1.96206 -1.17112 0
M  V30 410 C 45.558 -2.58694 2.34261 0
M  V30 411 C 46.906 -3.25878 2.72193 0
M  V30 412 O 47.93 -2.68993 2.33497 0
M  V30 413 O 46.789 -4.2874 3.38887 0
M  V30 414 H 43.883 -0.670243 0.484462 0
M  V30 415 H 46.429 -0.800031 1.49658 0
M  V30 416 H 45.201 -2.13105 3.2818 0
M  V30 417 H 44.824 -3.37527 2.10146 0
M  V30 418 N 45.8211 -1.22559 -0.990812 0
M  V30 419 C 47.0511 -1.07623 -1.76355 0
M  V30 420 C 47.4591 0.37601 -1.85426 0
M  V30 421 O 46.8021 1.27228 -1.32509 0
M  V30 422 C 46.8641 -1.61507 -3.21179 0
M  V30 423 C 46.5281 -3.10146 -3.35646 0
M  V30 424 C 47.5251 -4.07553 -3.22796 0
M  V30 425 C 45.2101 -3.49644 -3.60631 0
M  V30 426 C 47.2041 -5.42442 -3.34716 0
M  V30 427 C 44.8911 -4.84682 -3.72192 0
M  V30 428 C 45.8891 -5.8089 -3.59243 0
M  V30 429 O 45.5771 -7.13476 -3.70415 0
M  V30 430 H 45.3091 -0.377745 -0.560611 0
M  V30 431 H 47.8631 -1.62658 -1.25425 0
M  V30 432 H 46.0931 -1.00881 -3.73309 0
M  V30 433 H 47.7821 -1.42202 -3.80175 0
M  V30 434 H 48.5481 -3.78381 -3.03403 0
M  V30 435 H 44.4271 -2.75282 -3.69785 0
M  V30 436 H 47.9711 -6.17518 -3.24526 0
M  V30 437 H 43.8681 -5.13534 -3.91092 0
M  V30 438 H 44.6361 -7.21083 -3.87275 0
M  V30 439 N 47.2992 1.18797 -1.03562 0
M  V30 440 C 48.5462 1.8865 -0.736023 0
M  V30 441 C 48.8742 1.80041 0.735889 0
M  V30 442 O 48.1292 1.19179 1.55225 0
M  V30 443 C 48.4282 3.38692 -1.14117 0
M  V30 444 C 48.0942 3.67504 -2.6125 0
M  V30 445 C 46.7562 3.75078 -3.01447 0
M  V30 446 C 49.1082 3.80293 -3.56408 0
M  V30 447 C 46.4362 3.92915 -4.35701 0
M  V30 448 C 48.7882 3.99645 -4.90374 0
M  V30 449 C 47.4522 4.05453 -5.30249 0
M  V30 450 H 46.7222 0.690321 -0.26933 0
M  V30 451 H 49.3692 1.40641 -1.29971 0
M  V30 452 H 47.6742 3.88645 -0.496202 0
M  V30 453 H 49.3712 3.91072 -0.886789 0
M  V30 454 H 45.9612 3.62223 -2.29113 0
M  V30 455 H 50.1452 3.73779 -3.26501 0
M  V30 456 H 45.4012 3.95653 -4.66121 0
M  V30 457 H 49.5752 4.08482 -5.64017 0
M  V30 458 H 47.2022 4.19027 -6.34288 0
M  V30 459 N 48.7773 0.814389 1.34928 0
M  V30 460 C 50.1883 0.458364 1.80986 0
M  V30 461 C 50.5393 -1.02042 1.67577 0
M  V30 462 O 49.6643 -1.79352 1.21086 0
M  V30 463 C 50.2593 0.825212 3.28597 0
M  V30 464 C 48.8183 0.521677 3.72767 0
M  V30 465 C 47.9653 1.04668 2.56788 0
M  V30 466 H 50.9163 1.00533 1.22795 0
M  V30 467 H 50.9373 0.12571 3.80292 0
M  V30 468 H 50.4493 1.90154 3.38324 0
M  V30 469 H 48.5503 -0.545589 3.68584 0
M  V30 470 H 48.6633 1.05977 4.67232 0
M  V30 471 H 47.0273 0.468622 2.50352 0
M  V30 472 H 47.8103 2.12927 2.6929 0
M  V30 473 N 50.2554 -1.46986 0.568584 0
M  V30 474 C 51.1654 -2.33942 -0.17555 0
M  V30 475 C 52.1814 -1.48891 -0.90041 0
M  V30 476 O 53.3574 -1.81794 -0.86676 0
M  V30 477 C 50.4224 -3.25811 -1.18524 0
M  V30 478 C 49.4834 -4.26757 -0.466582 0
M  V30 479 C 48.7164 -5.14236 -1.42817 0
M  V30 480 O 48.9394 -5.04379 -2.66379 0
M  V30 481 O 47.8734 -5.94412 -0.946453 0
M  V30 482 H 51.6994 -2.98896 0.538036 0
M  V30 483 H 49.2844 -1.4573 0.329097 0
M  V30 484 H 51.1664 -3.82527 -1.76779 0
M  V30 485 H 49.8414 -2.63471 -1.88055 0
M  V30 486 H 48.7484 -3.73769 0.157451 0
M  V30 487 H 50.0814 -4.91843 0.187485 0
M  V30 488 N 51.7335 -0.305618 -1.54608 0
M  V30 489 C 53.1445 0.186098 -1.8577 0
M  V30 490 C 53.4955 1.53058 -1.22751 0
M  V30 491 O 52.6205 2.09888 -0.526893 0
M  V30 492 C 53.2155 0.344449 -3.37044 0
M  V30 493 C 51.7745 0.780384 -3.68221 0
M  V30 494 C 50.9215 -0.108554 -2.77087 0
M  V30 495 H 53.8725 -0.526485 -1.49712 0
M  V30 496 H 53.8935 1.17828 -3.61796 0
M  V30 497 H 53.4055 -0.634235 -3.82883 0
M  V30 498 H 51.5065 1.76945 -3.27904 0
M  V30 499 H 51.6195 0.596572 -4.75371 0
M  V30 500 H 49.9835 0.412931 -2.5133 0
M  V30 501 H 50.7665 -1.08368 -3.25747 0
M  V30 502 N 53.2116 1.57565 -0.0334293 0
M  V30 503 C 54.4576 1.92262 0.645226 0
M  V30 504 C 54.7906 0.910543 1.71531 0
M  V30 505 O 54.0656 -0.066099 1.94388 0
M  V30 506 C 54.3486 3.37422 1.2577 0
M  V30 507 C 54.2016 4.49369 0.196891 0
M  V30 508 C 55.5206 3.82628 2.17449 0
M  V30 509 H 52.6396 0.699171 0.233085 0
M  V30 510 H 55.2816 1.89779 -0.0915694 0
M  V30 511 H 53.4316 3.39669 1.88566 0
M  V30 512 H 55.1036 4.59254 -0.433962 0
M  V30 513 H 53.3466 4.31168 -0.477137 0
M  V30 514 H 54.0176 5.47978 0.665124 0
M  V30 515 H 56.4936 3.82145 1.64634 0
M  V30 516 H 55.3696 4.84883 2.57254 0
M  V30 517 H 55.6306 3.18376 3.0674 0
M  V30 518 N 54.6897 -0.239769 1.55765 0
M  V30 519 C 55.9177 -0.98417 1.81994 0
M  V30 520 C 56.3327 -1.7867 0.610124 0
M  V30 521 O 55.6897 -1.77571 -0.421271 0
M  V30 522 C 55.7407 -1.91635 3.06526 0
M  V30 523 O 55.4617 -1.14629 4.22838 0
M  V30 524 C 56.9627 -2.77616 3.45607 0
M  V30 525 H 54.1827 -0.28928 0.605441 0
M  V30 526 H 56.7267 -0.260499 2.02834 0
M  V30 527 H 54.8817 -2.5942 2.87715 0
M  V30 528 H 55.2957 -1.77745 4.93464 0
M  V30 529 H 56.7697 -3.38759 4.35828 0
M  V30 530 H 57.2467 -3.4909 2.6652 0
M  V30 531 H 57.8527 -2.15271 3.66795 0
M  V30 532 N 56.1678 -1.49265 -0.50573 0
M  V30 533 C 57.4138 -1.58748 -1.26202 0
M  V30 534 C 57.7468 -0.271227 -1.92297 0
M  V30 535 O 57.0218 0.724831 -1.80489 0
M  V30 536 C 57.3048 -2.74332 -2.33268 0
M  V30 537 C 57.1578 -4.15737 -1.71705 0
M  V30 538 C 58.4768 -2.85576 -3.34865 0
M  V30 539 H 55.5958 -0.577826 -0.457478 0
M  V30 540 H 58.2378 -1.81532 -0.560897 0
M  V30 541 H 56.3878 -2.55036 -2.93068 0
M  V30 542 H 58.0598 -4.46537 -1.15769 0
M  V30 543 H 56.3028 -4.21605 -1.02135 0
M  V30 544 H 56.9738 -4.92477 -2.49341 0
M  V30 545 H 59.4498 -3.03127 -2.8505 0
M  V30 546 H 58.3258 -3.68135 -4.07146 0
M  V30 547 H 58.5868 -1.94732 -3.96903 0
M  V30 548 N 57.6459 0.756429 -1.3826 0
M  V30 549 C 58.8709 1.55077 -1.37717 0
M  V30 550 C 59.2959 1.88073 0.03164 0
M  V30 551 O 58.6539 1.50364 1.01293 0
M  V30 552 C 58.7019 2.8283 -2.23695 0
M  V30 553 O 57.8059 3.77862 -1.6521 0
M  V30 554 H 57.1469 0.469152 -0.469885 0
M  V30 555 H 59.6769 0.935019 -1.81985 0
M  V30 556 H 59.6869 3.31783 -2.37453 0
M  V30 557 H 58.3619 2.58144 -3.2609 0
M  V30 558 H 56.9389 3.36555 -1.60578 0
M  V30 559 N 59.124 1.23083 0.984299 0
M  V30 560 C 60.37 1.07221 1.72845 0
M  V30 561 C 60.725 -0.387453 1.88458 0
M  V30 562 O 60.018 -1.28309 1.42293 0
M  V30 563 C 60.212 1.72673 3.1292 0
M  V30 564 C 60.041 3.24853 3.10967 0
M  V30 565 C 58.811 3.93998 3.16376 0
M  V30 566 C 61.009 4.21674 2.94441 0
M  V30 567 N 58.991 5.33192 3.04268 0
M  V30 568 C 60.362 5.47756 2.90453 0
M  V30 569 C 62.417 4.12457 2.78897 0
M  V30 570 C 61.12 6.6568 2.72512 0
M  V30 571 C 63.146 5.3004 2.62319 0
M  V30 572 C 62.508 6.55046 2.59026 0
M  V30 573 H 58.607 0.44685 0.641755 0
M  V30 574 H 61.191 1.55753 1.16829 0
M  V30 575 H 59.362 1.26679 3.67161 0
M  V30 576 H 61.094 1.49824 3.75945 0
M  V30 577 H 57.849 3.45052 3.24401 0
M  V30 578 H 58.273 6.06157 3.015 0
M  V30 579 H 62.915 3.16588 2.80235 0
M  V30 580 H 60.633 7.61689 2.69919 0
M  V30 581 H 64.219 5.24747 2.5126 0
M  V30 582 H 63.099 7.44498 2.46357 0
M  V30 583 N 60.6021 -1.18246 1.0419 0
M  V30 584 C 61.5501 -2.23968 0.627792 0
M  V30 585 C 62.5441 -1.65828 -0.346019 0
M  V30 586 O 63.7501 -1.78733 -0.213175 0
M  V30 587 H 60.1251 -0.728939 0.184802 0
M  V30 588 H 62.0961 -2.56202 1.52981 0
M  V30 589 C 60.8451 -3.47699 0.00796591 0
M  V30 590 H 60.1681 -3.92734 0.748347 0
M  V30 591 H 61.6081 -4.23294 -0.24455 0
M  V30 592 C 60.0671 -3.13153 -1.24246 0
M  V30 593 O 60.5971 -3.27003 -2.33307 0
M  V30 594 N 58.8031 -2.67467 -1.13622 0
M  V30 595 H 58.3501 -2.56396 -0.248734 0
M  V30 596 H 58.3081 -2.44724 -1.97377 0
M  V30 597 N 62.0802 -0.821533 -1.34494 0
M  V30 598 C 63.3052 -0.420873 -2.03085 0
M  V30 599 C 63.7302 0.964915 -1.61465 0
M  V30 600 O 63.0882 1.62763 -0.798607 0
M  V30 601 C 63.1362 -0.529414 -3.56693 0
M  V30 602 O 62.2402 0.451302 -4.09923 0
M  V30 603 H 61.5812 -0.173489 -0.640935 0
M  V30 604 H 64.1112 -1.11157 -1.71771 0
M  V30 605 H 64.1212 -0.404671 -4.05988 0
M  V30 606 H 62.7962 -1.54014 -3.86332 0
M  V30 607 H 61.3732 0.285558 -3.71805 0
M  V30 608 N 63.5583 1.46682 -0.576371 0
M  V30 609 C 64.8063 2.02013 -0.0594163 0
M  V30 610 C 65.1273 1.45101 1.30271 0
M  V30 611 O 64.3973 0.633317 1.8538 0
M  V30 612 H 62.9773 0.746759 -0.0189745 0
M  V30 613 H 65.6393 1.79862 -0.750717 0
M  V30 614 H 64.7353 3.12097 0.014345 0
M  V30 615 N 65.0364 0.313813 1.54444 0
M  V30 616 C 65.9994 -0.54379 2.22656 0
M  V30 617 C 66.9994 -1.05124 1.21678 0
M  V30 618 O 68.1894 -0.945225 1.46325 0
M  V30 619 C 65.3214 -1.75427 2.92298 0
M  V30 620 H 66.5144 0.0523599 2.99854 0
M  V30 621 H 64.0674 0.0647834 1.56166 0
M  V30 622 H 64.8024 -2.38991 2.19211 0
M  V30 623 H 64.5874 -1.39791 3.66334 0
M  V30 624 H 66.0774 -2.36325 3.44297 0
M  V30 625 N 66.5145 -1.57545 0.0417849 0
M  V30 626 C 67.4445 -2.14009 -0.933929 0
M  V30 627 C 68.4255 -1.05938 -1.33083 0
M  V30 628 O 69.6105 -1.33833 -1.40721 0
M  V30 629 C 66.7405 -2.67747 -2.21199 0
M  V30 630 C 65.6945 -3.80718 -1.95544 0
M  V30 631 C 65.0205 -4.20935 -3.29724 0
M  V30 632 C 66.3205 -5.06258 -1.28452 0
M  V30 633 H 68.0145 -2.95788 -0.463645 0
M  V30 634 H 65.5605 -1.42285 -0.221573 0
M  V30 635 H 67.5135 -3.05886 -2.89848 0
M  V30 636 H 66.2375 -1.83147 -2.70416 0
M  V30 637 H 64.8965 -3.43037 -1.2931 0
M  V30 638 H 64.5445 -3.33298 -3.76724 0
M  V30 639 H 64.2445 -4.9707 -3.13361 0
M  V30 640 H 65.7685 -4.61666 -3.9962 0
M  V30 641 H 67.1825 -5.41903 -1.8712 0
M  V30 642 H 65.5795 -5.87475 -1.22445 0
M  V30 643 H 66.6495 -4.84207 -0.259219 0
M  V30 644 N 67.9926 0.231505 -1.5589 0
M  V30 645 C 69.2206 0.974505 -1.82513 0
M  V30 646 C 69.6356 1.78344 -0.619591 0
M  V30 647 O 68.9926 1.77792 0.411848 0
M  V30 648 C 69.0436 1.90007 -3.07538 0
M  V30 649 O 68.7646 1.12385 -4.2344 0
M  V30 650 C 70.2656 2.75779 -3.47075 0
M  V30 651 H 67.4856 0.286065 -0.606966 0
M  V30 652 H 70.0296 0.249739 -2.02969 0
M  V30 653 H 68.1846 2.57891 -2.89086 0
M  V30 654 H 68.5986 1.75125 -4.944 0
M  V30 655 H 70.0726 3.36443 -4.37619 0
M  V30 656 H 70.5496 3.47672 -2.68367 0
M  V30 657 H 71.1556 2.13323 -3.67931 0
M  V30 658 N 69.4707 1.49531 0.497807 0
M  V30 659 C 70.6957 1.63159 1.28039 0
M  V30 660 C 71.1207 0.30418 1.85624 0
M  V30 661 O 70.4787 -0.728618 1.66015 0
M  V30 662 C 70.5267 2.70537 2.38416 0
M  V30 663 O 69.6307 2.29931 3.42353 0
M  V30 664 H 68.9717 0.546001 0.377861 0
M  V30 665 H 71.5017 1.9574 0.59558 0
M  V30 666 H 71.5117 2.92802 2.84132 0
M  V30 667 H 70.1867 3.6689 1.95869 0
M  V30 668 H 68.7637 2.18009 3.02533 0
M  V30 669 N 70.9488 -0.749086 1.3866 0
M  V30 670 C 72.1968 -1.50535 1.34847 0
M  V30 671 C 72.5178 -1.94909 -0.0595016 0
M  V30 672 O 71.7878 -1.67973 -1.00806 0
M  V30 673 H 70.3678 -0.558395 0.49619 0
M  V30 674 H 73.0298 -0.890165 1.73384 0
M  V30 675 H 72.1258 -2.39413 2.00219 0
M  V30 676 N 72.4269 -1.23603 -0.977757 0
M  V30 677 C 73.6729 -1.07129 -1.72195 0
M  V30 678 C 74.0059 0.390501 -1.90233 0
M  V30 679 O 73.2809 1.28902 -1.45653 0
M  V30 680 C 73.5639 -1.80031 -3.11867 0
M  V30 681 C 73.4169 -3.33899 -3.01383 0
M  V30 682 C 74.7359 -1.56492 -4.11337 0
M  V30 683 H 71.8549 -0.390571 -0.624999 0
M  V30 684 H 74.4969 -1.52142 -1.13811 0
M  V30 685 H 72.6469 -1.41768 -3.6171 0
M  V30 686 H 74.3189 -3.81699 -2.59043 0
M  V30 687 H 72.5619 -3.62796 -2.37827 0
M  V30 688 H 73.2329 -3.801 -4.00285 0
M  V30 689 H 75.7089 -1.89757 -3.70313 0
M  V30 690 H 74.5849 -2.09973 -5.07151 0
M  V30 691 H 74.8459 -0.500874 -4.39254 0
M  V30 692 N 73.905 1.17692 -1.04816 0
M  V30 693 C 74.855 2.1952 -0.616042 0
M  V30 694 C 75.839 1.57147 0.345485 0
M  V30 695 O 77.031 1.76245 0.163325 0
M  V30 696 C 74.16 3.43298 0.0116917 0
M  V30 697 C 73.246 4.12777 -0.973435 0
M  V30 698 N 73.637 4.5814 -2.14339 0
M  V30 699 C 71.935 4.38747 -0.80108 0
M  V30 700 C 72.636 5.11713 -2.7663 0
M  V30 701 N 71.612 5.03686 -2.04453 0
M  V30 702 H 75.414 2.52293 -1.5075 0
M  V30 703 H 72.928 1.3398 -0.917776 0
M  V30 704 H 74.925 4.15519 0.339006 0
M  V30 705 H 73.585 3.12018 0.898593 0
M  V30 706 H 74.596 4.52349 -2.52191 0
M  V30 707 H 71.273 4.17485 0.0350934 0
M  V30 708 H 72.663 5.56962 -3.75823 0
M  V30 709 N 75.3831 0.828654 1.34056 0
M  V30 710 C 76.6111 0.43262 2.02326 0
M  V30 711 C 77.0261 -0.963147 1.62385 0
M  V30 712 O 76.3831 -1.62425 0.832121 0
M  V30 713 C 76.4341 0.53182 3.57567 0
M  V30 714 O 76.1551 1.87258 3.96063 0
M  V30 715 C 77.6561 0.131422 4.43105 0
M  V30 716 H 74.8761 0.172923 0.648335 0
M  V30 717 H 77.4201 1.1184 1.71208 0
M  V30 718 H 75.5751 -0.105938 3.87255 0
M  V30 719 H 75.9891 1.85087 4.90758 0
M  V30 720 H 77.4631 0.251904 5.51425 0
M  V30 721 H 77.9401 -0.925645 4.29335 0
M  V30 722 H 78.5461 0.743207 4.18756 0
M  V30 723 N 76.8612 -1.46375 0.584142 0
M  V30 724 C 78.1082 -2.02378 0.0702675 0
M  V30 725 C 78.4362 -1.45545 -1.29023 0
M  V30 726 O 77.6912 -0.610967 -1.85918 0
M  V30 727 C 77.9902 -3.57373 -0.0439342 0
M  V30 728 C 77.6562 -4.33252 1.24915 0
M  V30 729 C 76.3182 -4.53701 1.60341 0
M  V30 730 C 78.6702 -4.7681 2.1048 0
M  V30 731 C 75.9982 -5.1496 2.81128 0
M  V30 732 C 78.3502 -5.39404 3.30494 0
M  V30 733 C 77.0142 -5.5808 3.66201 0
M  V30 734 H 76.2842 -0.740554 0.0257127 0
M  V30 735 H 78.9312 -1.75727 0.761065 0
M  V30 736 H 77.2362 -3.83169 -0.817869 0
M  V30 737 H 78.9332 -3.98384 -0.457318 0
M  V30 738 H 75.5232 -4.17633 0.963364 0
M  V30 739 H 79.7072 -4.60766 1.84414 0
M  V30 740 H 74.9632 -5.27611 3.08928 0
M  V30 741 H 79.1372 -5.72114 3.97063 0
M  V30 742 H 76.7642 -6.05318 4.59885 0
M  V30 743 N 78.3393 -0.321999 -1.54275 0
M  V30 744 C 79.7503 0.166384 -1.85957 0
M  V30 745 C 80.1013 1.51747 -1.24367 0
M  V30 746 O 79.2263 2.09317 -0.549124 0
M  V30 747 C 79.8213 0.308681 -3.37391 0
M  V30 748 C 78.3803 0.741286 -3.69028 0
M  V30 749 C 77.5273 -0.137937 -2.76957 0
M  V30 750 H 80.4783 -0.542335 -1.49146 0
M  V30 751 H 80.4993 1.13984 -3.63026 0
M  V30 752 H 80.0113 -0.674809 -3.82188 0
M  V30 753 H 78.1123 1.73458 -3.29762 0
M  V30 754 H 78.2253 0.546118 -4.75977 0
M  V30 755 H 76.5893 0.386251 -2.51754 0
M  V30 756 H 77.3723 -1.11816 -3.2458 0
M  V30 757 N 79.8174 1.5752 -0.0501392 0
M  V30 758 C 80.7804 2.1037 0.909786 0
M  V30 759 C 81.7804 1.02308 1.24056 0
M  V30 760 O 82.9704 1.28385 1.17741 0
M  V30 761 C 80.1024 2.58708 2.21998 0
M  V30 762 H 81.2954 2.96479 0.451665 0
M  V30 763 H 78.8484 1.55038 0.198248 0
M  V30 764 H 79.5834 1.75989 2.72394 0
M  V30 765 H 79.3684 3.37675 1.99295 0
M  V30 766 H 80.8584 2.99747 2.9076 0
M  V30 767 N 81.2955 -0.223234 1.56011 0
M  V30 768 C 82.5415 -0.949279 1.79211 0
M  V30 769 C 82.8745 -1.84054 0.619494 0
M  V30 770 O 82.1495 -1.90726 -0.381317 0
M  V30 771 C 82.4325 -1.78965 3.12479 0
M  V30 772 C 82.2855 -0.924997 4.40186 0
M  V30 773 C 83.6045 -2.76774 3.42175 0
M  V30 774 H 80.7235 -0.343676 0.651963 0
M  V30 775 H 83.3655 -0.218253 1.88742 0
M  V30 776 H 81.5155 -2.41291 3.04485 0
M  V30 777 H 83.1875 -0.318615 4.60198 0
M  V30 778 H 81.4305 -0.230344 4.33188 0
M  V30 779 H 82.1015 -1.54735 5.29869 0
M  V30 780 H 84.5775 -2.24584 3.50287 0
M  V30 781 H 83.4535 -3.32678 4.36597 0
M  V30 782 H 83.7145 -3.54429 2.64258 0
M  V30 783 N 82.7736 -1.49793 -0.48987 0
M  V30 784 C 83.7036 -1.70201 -1.59856 0
M  V30 785 C 84.6846 -0.55076 -1.60937 0
M  V30 786 O 85.8696 -0.787841 -1.77501 0
M  V30 787 C 82.9996 -1.77882 -2.98287 0
M  V30 788 C 81.9536 -2.92907 -3.12073 0
M  V30 789 C 81.2796 -2.85712 -4.51965 0
M  V30 790 C 82.5796 -4.3369 -2.91051 0
M  V30 791 H 84.2736 -2.63025 -1.43032 0
M  V30 792 H 81.8196 -1.26574 -0.686664 0
M  V30 793 H 83.7726 -1.90744 -3.75759 0
M  V30 794 H 82.4966 -0.816653 -3.16225 0
M  V30 795 H 81.1556 -2.79665 -2.37029 0
M  V30 796 H 80.8036 -1.8738 -4.66795 0
M  V30 797 H 80.5036 -3.62921 -4.62128 0
M  V30 798 H 82.0276 -3.00598 -5.31482 0
M  V30 799 H 83.4416 -4.47555 -3.58284 0
M  V30 800 H 81.8386 -5.12205 -3.12675 0
M  V30 801 H 82.9086 -4.47362 -1.87071 0
M  V30 802 N 84.2517 0.741722 -1.39055 0
M  V30 803 C 85.1837 1.8657 -1.33133 0
M  V30 804 C 86.1967 1.61001 -0.241329 0
M  V30 805 O 87.3857 1.7136 -0.499784 0
M  V30 806 C 84.4857 3.22457 -1.04283 0
M  V30 807 C 83.6587 3.75435 -2.24427 0
M  V30 808 C 82.7177 4.89867 -1.92138 0
M  V30 809 O 81.7437 5.03879 -2.64754 0
M  V30 810 N 82.9457 5.73738 -0.88347 0
M  V30 811 H 85.7107 1.92156 -2.29991 0
M  V30 812 H 83.2717 0.922172 -1.3307 0
M  V30 813 H 85.2637 3.9657 -0.807128 0
M  V30 814 H 83.8337 3.12181 -0.161807 0
M  V30 815 H 83.0537 2.92751 -2.6399 0
M  V30 816 H 84.3417 4.07563 -3.04581 0
M  V30 817 H 83.7397 5.64999 -0.281517 0
M  V30 818 H 82.2967 6.47947 -0.707662 0
M  V30 819 N 85.7298 1.2412 0.971189 0
M  V30 820 C 86.9548 1.10667 1.75407 0
M  V30 821 C 87.3798 -0.337048 1.85056 0
M  V30 822 O 86.7378 -1.24396 1.31892 0
M  V30 823 C 86.7858 1.74726 3.15441 0
M  V30 824 O 85.8898 1.01566 3.99697 0
M  V30 825 H 85.2308 0.387341 0.539317 0
M  V30 826 H 87.7608 1.64358 1.2185 0
M  V30 827 H 87.7708 1.80341 3.6598 0
M  V30 828 H 86.4458 2.79773 3.07734 0
M  V30 829 H 85.0228 1.03713 3.58187 0
M  V30 830 N 87.2079 -1.17134 1.05439 0
M  V30 831 C 88.4329 -1.91913 0.786396 0
M  V30 832 C 88.8579 -1.7643 -0.652234 0
M  V30 833 O 88.2159 -1.08372 -1.45345 0
M  V30 834 C 88.2639 -3.40921 1.17497 0
M  V30 835 O 87.3679 -4.11244 0.308589 0
M  V30 836 H 86.7089 -0.598215 0.288158 0
M  V30 837 H 89.2389 -1.48457 1.4079 0
M  V30 838 H 89.2489 -3.91668 1.14281 0
M  V30 839 H 87.9239 -3.5151 2.22292 0
M  V30 840 H 86.5009 -3.70731 0.40157 0
M  V30 841 N 88.686 -0.835752 -1.33615 0
M  V30 842 C 89.934 -0.429109 -1.97492 0
M  V30 843 C 90.255 1.01433 -1.66543 0
M  V30 844 O 89.525 1.70611 -0.962744 0
M  V30 845 H 88.105 -0.155686 -0.730596 0
M  V30 846 H 90.767 -1.06802 -1.63031 0
M  V30 847 H 89.863 -0.55861 -3.0706 0
M  V30 848 N 90.1641 1.46063 -0.591896 0
M  V30 849 C 91.0941 2.33172 0.123673 0
M  V30 850 C 92.0751 1.45897 0.87453 0
M  V30 851 O 93.2601 1.74698 0.848181 0
M  V30 852 C 90.3901 3.28336 1.13194 0
M  V30 853 C 89.3441 4.25124 0.495324 0
M  V30 854 C 88.6701 5.09863 1.61071 0
M  V30 855 C 89.9701 5.19143 -0.573425 0
M  V30 856 H 91.6641 2.93252 -0.603646 0
M  V30 857 H 89.2101 1.41014 -0.291741 0
M  V30 858 H 91.1631 3.88137 1.64097 0
M  V30 859 H 89.8871 2.66383 1.88965 0
M  V30 860 H 88.5461 3.66599 0.00729452 0
M  V30 861 H 88.1941 4.44288 2.35832 0
M  V30 862 H 87.8941 5.75417 1.19035 0
M  V30 863 H 89.4181 5.72529 2.12233 0
M  V30 864 H 90.8321 5.73106 -0.1491 0
M  V30 865 H 89.2291 5.93089 -0.914636 0
M  V30 866 H 90.2991 4.62519 -1.45617 0
M  V30 867 N 91.6422 0.330177 1.54103 0
M  V30 868 C 92.8722 -0.271784 2.04805 0
M  V30 869 C 93.2802 -1.45816 1.20559 0
M  V30 870 O 92.6232 -1.82247 0.2306 0
M  V30 871 C 92.6852 -0.763238 3.51305 0
M  V30 872 C 92.3492 0.301705 4.56003 0
M  V30 873 C 93.3462 1.13999 5.07248 0
M  V30 874 C 91.0312 0.451793 5.00264 0
M  V30 875 C 93.0252 2.11402 6.01322 0
M  V30 876 C 90.7122 1.42924 5.94151 0
M  V30 877 C 91.7102 2.25882 6.44567 0
M  V30 878 O 91.3982 3.21965 7.3661 0
M  V30 879 H 91.1302 -0.058693 0.673447 0
M  V30 880 H 93.6842 0.476395 1.99799 0
M  V30 881 H 91.9142 -1.56244 3.5373 0
M  V30 882 H 93.6032 -1.28427 3.85047 0
M  V30 883 H 94.3692 1.03505 4.73827 0
M  V30 884 H 90.2482 -0.184044 4.60632 0
M  V30 885 H 93.7922 2.76192 6.40596 0
M  V30 886 H 89.6892 1.53479 6.26988 0
M  V30 887 H 90.4572 3.17281 7.54503 0
M  V30 888 N 93.1203 -1.57491 0.0584922 0
M  V30 889 C 94.3453 -1.97711 -0.62652 0
M  V30 890 C 94.7703 -0.936132 -1.63151 0
M  V30 891 O 94.1283 0.099811 -1.81025 0
M  V30 892 C 94.1763 -3.36989 -1.28338 0
M  V30 893 O 93.2803 -3.35433 -2.39913 0
M  V30 894 H 92.6213 -0.643868 -0.162266 0
M  V30 895 H 95.1513 -2.04193 0.129064 0
M  V30 896 H 95.1613 -3.73879 -1.63335 0
M  V30 897 H 93.8363 -4.12289 -0.546889 0
M  V30 898 H 92.4133 -3.10298 -2.06809 0
M  V30 899 N 94.5984 0.214957 -1.56127 0
M  V30 900 C 95.5284 1.2695 -1.95974 0
M  V30 901 C 96.5094 1.48539 -0.828868 0
M  V30 902 O 97.6944 1.60611 -1.09168 0
M  V30 903 C 94.8244 2.61794 -2.28214 0
M  V30 904 C 93.7784 2.54851 -3.43853 0
M  V30 905 C 93.1044 3.93785 -3.61715 0
M  V30 906 C 94.4044 2.09065 -4.78632 0
M  V30 907 H 96.0984 0.93846 -2.84312 0
M  V30 908 H 93.6444 0.449996 -1.36788 0
M  V30 909 H 95.5974 3.35731 -2.54682 0
M  V30 910 H 94.3214 2.96599 -1.36736 0
M  V30 911 H 92.9804 1.8337 -3.17444 0
M  V30 912 H 92.6284 4.25908 -2.67602 0
M  V30 913 H 92.3284 3.90019 -4.39498 0
M  V30 914 H 93.8524 4.69374 -3.90539 0
M  V30 915 H 95.2664 2.7275 -5.04262 0
M  V30 916 H 93.6634 2.16346 -5.59745 0
M  V30 917 H 94.7334 1.04315 -4.73547 0
M  V30 918 N 96.0765 1.50051 0.48192 0
M  V30 919 C 97.3015 1.64508 1.26301 0
M  V30 920 C 97.7265 0.323851 1.85291 0
M  V30 921 O 97.0845 -0.710969 1.66778 0
M  V30 922 C 97.1325 2.7305 2.35533 0
M  V30 923 O 96.2365 2.3355 3.39895 0
M  V30 924 H 95.5775 0.549978 0.372048 0
M  V30 925 H 98.1075 1.9636 0.574786 0
M  V30 926 H 98.1175 2.95799 2.8101 0
M  V30 927 H 96.7925 3.68946 1.91967 0
M  V30 928 H 95.3695 2.21205 3.00204 0
M  V30 929 N 97.5546 -0.734337 1.39446 0
M  V30 930 C 98.7796 -1.52866 1.40167 0
M  V30 931 C 99.2046 -1.881 -0.00171513 0
M  V30 932 O 98.5626 -1.51957 -0.988879 0
M  V30 933 C 98.6106 -2.79235 2.28167 0
M  V30 934 O 97.7146 -3.75185 1.71201 0
M  V30 935 H 97.0556 -0.461618 0.477289 0
M  V30 936 H 99.5856 -0.905949 1.8345 0
M  V30 937 H 99.5956 -3.27963 2.42702 0
M  V30 938 H 98.2706 -2.52923 3.30156 0
M  V30 939 H 96.8476 -3.33958 1.65912 0
M  V30 940 N 99.0327 -1.24633 -0.964593 0
M  V30 941 C 100.279 -1.08949 -1.71049 0
M  V30 942 C 100.612 0.370302 -1.90637 0
M  V30 943 O 99.8867 1.27349 -1.47011 0
M  V30 944 C 100.17 -1.83329 -3.0994 0
M  V30 945 C 100.023 -3.37077 -2.97824 0
M  V30 946 C 101.342 -1.60846 -4.09654 0
M  V30 947 H 98.4607 -0.397178 -0.620821 0
M  V30 948 H 101.103 -1.5334 -1.12191 0
M  V30 949 H 99.2527 -1.45597 -3.60186 0
M  V30 950 H 100.925 -3.84425 -2.5498 0
M  V30 951 H 99.1677 -3.65298 -2.33965 0
M  V30 952 H 99.8387 -3.84324 -3.96231 0
M  V30 953 H 102.315 -1.93674 -3.68279 0
M  V30 954 H 101.191 -2.1534 -5.04896 0
M  V30 955 H 101.452 -0.547434 -4.38698 0
M  V30 956 N 100.511 1.16574 -1.06058 0
M  V30 957 C 101.757 1.87324 -0.777022 0
M  V30 958 C 102.09 1.81351 0.694645 0
M  V30 959 O 101.365 1.22753 1.50871 0
M  V30 960 C 101.648 3.36991 -1.26922 0
M  V30 961 C 101.501 3.51667 -2.80447 0
M  V30 962 C 102.82 4.3131 -0.87521 0
M  V30 963 H 99.9388 0.680191 -0.28374 0
M  V30 964 H 102.581 1.37036 -1.3161 0
M  V30 965 H 100.731 3.79949 -0.81063 0
M  V30 966 H 102.403 3.17664 -3.34495 0
M  V30 967 H 100.646 2.93656 -3.19294 0
M  V30 968 H 101.317 4.56766 -3.0995 0
M  V30 969 H 103.793 3.9624 -1.27014 0
M  V30 970 H 102.669 5.34545 -1.2471 0
M  V30 971 H 102.93 4.41552 0.220071 0
M  V30 972 N 101.989 0.842826 1.3317 0
M  V30 973 C 103.217 0.454055 2.01856 0
M  V30 974 C 103.632 -0.94587 1.63397 0
M  V30 975 O 102.989 -1.61534 0.849302 0
M  V30 976 C 103.04 0.569715 3.56982 0
M  V30 977 O 102.761 1.91448 3.94055 0
M  V30 978 C 104.262 0.178412 4.42941 0
M  V30 979 H 101.482 0.17979 0.646465 0
M  V30 980 H 104.026 1.1365 1.70012 0
M  V30 981 H 102.181 -0.0648587 3.87346 0
M  V30 982 H 102.595 1.90282 4.88767 0
M  V30 983 H 104.069 0.310376 5.51127 0
M  V30 984 H 104.546 -0.880056 4.30293 0
M  V30 985 H 105.152 0.787579 4.17944 0
M  V30 986 N 103.467 -1.45747 0.599634 0
M  V30 987 C 104.713 -2.02592 0.0918643 0
M  V30 988 C 105.046 -1.46806 -1.27128 0
M  V30 989 O 104.321 -0.639658 -1.83681 0
M  V30 990 C 104.604 -3.60073 0.0443398 0
M  V30 991 C 104.457 -4.26208 1.43759 0
M  V30 992 C 105.776 -4.35309 -0.647608 0
M  V30 993 H 102.895 -0.736175 0.034857 0
M  V30 994 H 105.537 -1.73694 0.770081 0
M  V30 995 H 103.687 -3.84823 -0.533224 0
M  V30 996 H 105.359 -4.12668 2.06162 0
M  V30 997 H 103.602 -3.84916 2.00056 0
M  V30 998 H 104.273 -5.35069 1.35665 0
M  V30 999 H 106.749 -4.15805 -0.156776 0
M  V30 1000 H 105.625 -5.45038 -0.649942 0
M  V30 1001 H 105.886 -4.07598 -1.71219 0
M  V30 1002 N 104.945 -0.338344 -1.53925 0
M  V30 1003 C 106.356 0.146651 -1.86123 0
M  V30 1004 C 106.707 1.5042 -1.2597 0
M  V30 1005 O 105.832 2.08723 -0.571294 0
M  V30 1006 C 106.427 0.272879 -3.37699 0
M  V30 1007 C 104.986 0.702103 -3.69794 0
M  V30 1008 C 104.133 -0.167304 -2.76795 0
M  V30 1009 H 107.084 -0.558123 -1.48562 0
M  V30 1010 H 107.105 1.10128 -3.64214 0
M  V30 1011 H 106.617 -0.715307 -3.81451 0
M  V30 1012 H 104.718 1.6995 -3.31584 0
M  V30 1013 H 104.831 0.495604 -4.7653 0
M  V30 1014 H 103.195 0.359527 -2.5215 0
M  V30 1015 H 103.978 -1.15253 -3.23375 0
M  V30 1016 N 106.423 1.57458 -0.0668435 0
M  V30 1017 C 107.648 1.9804 0.616027 0
M  V30 1018 C 108.073 0.944771 1.62652 0
M  V30 1019 O 107.431 -0.0902094 1.81075 0
M  V30 1020 C 107.479 3.37665 1.26549 0
M  V30 1021 O 106.583 3.36701 2.38131 0
M  V30 1022 H 105.924 0.644719 0.158849 0
M  V30 1023 H 108.454 2.04121 -0.139891 0
M  V30 1024 H 108.464 3.7474 1.6135 0
M  V30 1025 H 107.139 4.12573 0.525016 0
M  V30 1026 H 105.716 3.1139 2.0516 0
M  V30 1027 N 107.901 -0.206675 1.56239 0
M  V30 1028 C 109.126 -0.949474 1.8439 0
M  V30 1029 C 109.551 -1.76549 0.649016 0
M  V30 1030 O 108.909 -1.76782 -0.402231 0
M  V30 1031 C 108.957 -1.83078 3.10668 0
M  V30 1032 O 108.061 -2.9281 2.90407 0
M  V30 1033 H 107.402 -0.268033 0.607499 0
M  V30 1034 H 109.932 -0.215488 2.03462 0
M  V30 1035 H 109.942 -2.2377 3.41161 0
M  V30 1036 H 108.617 -1.23112 3.97261 0
M  V30 1037 H 107.194 -2.55956 2.71184 0
M  V30 1038 N 109.379 -1.50304 -0.473955 0
M  V30 1039 C 110.604 -1.65175 -1.25427 0
M  V30 1040 C 111.029 -0.333673 -1.85117 0
M  V30 1041 O 110.387 0.702114 -1.67153 0
M  V30 1042 C 110.435 -2.74295 -2.34082 0
M  V30 1043 O 109.539 -2.35349 -3.38651 0
M  V30 1044 H 108.88 -0.551944 -0.369126 0
M  V30 1045 H 111.41 -1.96662 -0.564364 0
M  V30 1046 H 111.42 -2.97285 -2.79438 0
M  V30 1047 H 110.095 -3.69959 -1.90008 0
M  V30 1048 H 108.672 -2.22794 -2.99027 0
M  V30 1049 N 110.857 0.726932 -1.39834 0
M  V30 1050 C 111.787 1.85405 -1.41941 0
M  V30 1051 C 112.768 1.67751 -0.281728 0
M  V30 1052 O 113.953 1.8795 -0.488717 0
M  V30 1053 C 111.083 3.23243 -1.2701 0
M  V30 1054 C 110.037 3.55549 -2.38262 0
M  V30 1055 C 109.363 4.9241 -2.08415 0
M  V30 1056 C 110.663 3.577 -3.80589 0
M  V30 1057 H 112.357 1.83899 -2.36266 0
M  V30 1058 H 109.903 0.883349 -1.13723 0
M  V30 1059 H 111.856 4.01775 -1.27103 0
M  V30 1060 H 110.58 3.25296 -0.291564 0
M  V30 1061 H 109.239 2.79351 -2.37399 0
M  V30 1062 H 108.887 4.91052 -1.0898 0
M  V30 1063 H 108.587 5.14992 -2.82943 0
M  V30 1064 H 110.111 5.73289 -2.10171 0
M  V30 1065 H 111.525 4.26293 -3.83337 0
M  V30 1066 H 109.922 3.91804 -4.54543 0
M  V30 1067 H 110.992 2.57328 -4.10987 0
M  V30 1068 N 112.336 1.25143 0.95797 0
M  V30 1069 C 113.584 1.09476 1.69881 0
M  V30 1070 C 113.905 -0.365502 1.91544 0
M  V30 1071 O 113.175 -1.25985 1.50015 0
M  V30 1072 H 111.755 0.402128 0.629525 0
M  V30 1073 H 114.417 1.57214 1.15194 0
M  V30 1074 H 113.513 1.60046 2.6794 0
M  V30 1075 N 113.814 -1.1601 1.06675 0
M  V30 1076 C 115.042 -1.90527 0.806667 0
M  V30 1077 C 115.457 -1.77643 -0.639396 0
M  V30 1078 O 114.814 -1.12369 -1.43803 0
M  V30 1079 C 114.865 -3.41106 1.19705 0
M  V30 1080 O 114.586 -3.53608 2.58636 0
M  V30 1081 C 116.087 -4.32663 0.965266 0
M  V30 1082 H 113.307 -0.604053 0.292166 0
M  V30 1083 H 115.851 -1.47026 1.4214 0
M  V30 1084 H 114.006 -3.82296 0.626774 0
M  V30 1085 H 114.42 -4.47011 2.74375 0
M  V30 1086 H 115.894 -5.36763 1.288 0
M  V30 1087 H 116.371 -4.39089 -0.0987936 0
M  V30 1088 H 116.977 -3.97206 1.52011 0
M  V30 1089 N 115.292 -0.849877 -1.32721 0
M  V30 1090 C 116.224 -0.248332 -2.27851 0
M  V30 1091 C 117.237 0.577218 -1.52224 0
M  V30 1092 O 118.426 0.402489 -1.73903 0
M  V30 1093 C 115.526 0.668107 -3.32249 0
M  V30 1094 C 114.699 -0.120534 -4.37234 0
M  V30 1095 C 113.758 0.720932 -5.21238 0
M  V30 1096 O 112.784 0.156166 -5.68986 0
M  V30 1097 N 113.986 2.03647 -5.43607 0
M  V30 1098 H 116.751 -1.06575 -2.80111 0
M  V30 1099 H 114.312 -0.709395 -1.45531 0
M  V30 1100 H 116.304 1.23627 -3.85355 0
M  V30 1101 H 114.874 1.38621 -2.80184 0
M  V30 1102 H 114.094 -0.870108 -3.84477 0
M  V30 1103 H 115.382 -0.662406 -5.0447 0
M  V30 1104 H 114.78 2.51871 -5.06535 0
M  V30 1105 H 113.337 2.55287 -5.99727 0
M  V30 1106 N 116.77 1.45427 -0.607355 0
M  V30 1107 C 117.998 2.06614 -0.108814 0
M  V30 1108 C 118.413 1.45204 1.2067 0
M  V30 1109 O 117.77 0.566132 1.73497 0
M  V30 1110 C 117.821 3.61481 0.0375347 0
M  V30 1111 O 117.542 4.20598 -1.22593 0
M  V30 1112 C 119.043 4.39652 0.567561 0
M  V30 1113 H 116.263 0.66747 -0.0687351 0
M  V30 1114 H 118.807 1.86675 -0.835022 0
M  V30 1115 H 116.962 3.80762 0.714068 0
M  V30 1116 H 117.376 5.1377 -1.05547 0
M  V30 1117 H 118.85 5.48518 0.61905 0
M  V30 1118 H 119.327 4.09417 1.58978 0
M  V30 1119 H 119.933 4.25234 -0.0749202 0
M  V30 1120 N 118.248 0.346503 1.53744 0
M  V30 1121 C 119.478 -0.250047 2.05081 0
M  V30 1122 C 119.886 -1.44529 1.22098 0
M  V30 1123 O 119.229 -1.81992 0.249917 0
M  V30 1124 C 119.291 -0.725934 3.52094 0
M  V30 1125 C 118.955 0.350053 4.55657 0
M  V30 1126 C 119.952 1.19372 5.0601 0
M  V30 1127 C 117.637 0.504827 4.99757 0
M  V30 1128 C 119.631 2.17768 5.99046 0
M  V30 1129 C 117.318 1.49218 5.92602 0
M  V30 1130 C 118.316 2.32706 6.42135 0
M  V30 1131 O 118.004 3.2976 7.33153 0
M  V30 1132 H 117.736 -0.0515469 0.674032 0
M  V30 1133 H 120.29 0.497559 1.99282 0
M  V30 1134 H 118.52 -1.52483 3.55367 0
M  V30 1135 H 120.209 -1.24336 3.86388 0
M  V30 1136 H 120.975 1.08525 4.72702 0
M  V30 1137 H 116.854 -0.135178 4.60802 0
M  V30 1138 H 120.398 2.82971 6.37631 0
M  V30 1139 H 116.295 1.6012 6.25325 0
M  V30 1140 H 117.063 3.25265 7.51096 0
M  V30 1141 N 119.726 -1.57421 0.075193 0
M  V30 1142 C 120.975 -1.92794 -0.592731 0
M  V30 1143 C 121.288 -0.957478 -1.70563 0
M  V30 1144 O 122.494 -1.20417 -2.43335 0
M  V30 1145 C 120.95 -3.42495 -1.10569 0
M  V30 1146 C 120.558 -4.47994 -0.0236121 0
M  V30 1147 C 122.302 -3.86864 -1.74748 0
M  V30 1148 C 120.209 -5.88829 -0.550803 0
M  V30 1149 H 119.139 -0.719591 -0.225177 0
M  V30 1150 H 121.79 -1.82902 0.147978 0
M  V30 1151 H 120.172 -3.47471 -1.89947 0
M  V30 1152 H 121.346 -4.54637 0.751099 0
M  V30 1153 H 119.661 -4.13113 0.522159 0
M  V30 1154 H 122.258 -4.8947 -2.15229 0
M  V30 1155 H 122.601 -3.24417 -2.60882 0
M  V30 1156 H 123.134 -3.84504 -1.01986 0
M  V30 1157 H 119.873 -6.54929 0.273457 0
M  V30 1158 H 119.393 -5.85698 -1.29296 0
M  V30 1159 H 121.072 -6.38811 -1.02613 0
M  V30 1160 N 121.204 0.198386 -1.56346 0
M  V30 1161 C 122.444 0.92609 -1.82217 0
M  V30 1162 C 122.808 1.80584 -0.652195 0
M  V30 1163 O 124.009 2.56907 -0.790716 0
M  V30 1164 C 122.28 1.72354 -3.13096 0
M  V30 1165 S 123.839 2.50371 -3.6036 0
M  V30 1166 H 120.657 0.310677 -0.639532 0
M  V30 1167 H 123.259 0.189755 -1.94577 0
M  V30 1168 H 121.963 1.0678 -3.96265 0
M  V30 1169 H 121.494 2.50175 -3.03605 0
M  V30 1170 H 123.509 3.74488 -3.25535 0
M  V30 1171 N 122.682 1.50554 0.465978 0
M  V30 1172 C 123.63 1.70324 1.58406 0
M  V30 1173 C 124.624 0.569139 1.59553 0
M  V30 1174 O 125.83 0.749776 1.63641 0
M  V30 1175 H 122.205 0.537688 0.525734 0
M  V30 1176 H 124.176 2.64104 1.38894 0
M  V30 1177 C 122.925 1.81928 2.96307 0
M  V30 1178 H 122.248 2.68586 2.96144 0
M  V30 1179 H 123.688 1.99784 3.73982 0
M  V30 1180 C 122.147 0.572095 3.32007 0
M  V30 1181 O 122.677 -0.286416 4.00678 0
M  V30 1182 N 120.883 0.424606 2.87481 0
M  V30 1183 H 120.43 1.12427 2.31771 0
M  V30 1184 H 120.388 -0.408697 3.11732 0
M  V30 1185 N 124.16 -0.719506 1.40217 0
M  V30 1186 C 125.406 -1.48152 1.38488 0
M  V30 1187 C 125.739 -1.94195 -0.0141867 0
M  V30 1188 O 125.014 -1.67884 -0.982096 0
M  V30 1189 C 125.297 -2.71035 2.37091 0
M  V30 1190 C 125.15 -2.30912 3.86005 0
M  V30 1191 C 126.469 -3.73182 2.33288 0
M  V30 1192 H 123.588 -0.537395 0.504357 0
M  V30 1193 H 126.23 -0.821472 1.71324 0
M  V30 1194 H 124.38 -3.27352 2.0922 0
M  V30 1195 H 126.052 -1.80107 4.24687 0
M  V30 1196 H 124.295 -1.62958 4.02029 0
M  V30 1197 H 124.966 -3.18978 4.50508 0
M  V30 1198 H 127.442 -3.26485 2.57966 0
M  V30 1199 H 126.318 -4.56806 3.04334 0
M  V30 1200 H 126.579 -4.21202 1.34317 0
M  V30 1201 N 125.638 -1.25649 -0.95132 0
M  V30 1202 C 126.586 -1.06118 -2.06982 0
M  V30 1203 C 127.58 0.00889169 -1.69398 0
M  V30 1204 O 128.786 -0.146988 -1.79399 0
M  V30 1205 H 125.161 -0.326248 -0.677544 0
M  V30 1206 H 127.132 -2.00932 -2.2061 0
M  V30 1207 C 125.881 -0.700145 -3.40578 0
M  V30 1208 H 125.204 -1.51537 -3.69968 0
M  V30 1209 H 126.644 -0.603211 -4.19687 0
M  V30 1210 C 125.103 0.59403 -3.31622 0
M  V30 1211 O 125.633 1.63522 -3.66911 0
M  V30 1212 N 123.839 0.58089 -2.84735 0
M  V30 1213 H 123.386 -0.266783 -2.56215 0
M  V30 1214 H 123.344 1.44695 -2.79125 0
M  V30 1215 N 127.117 1.15442 -1.07289 0
M  V30 1216 C 128.067 2.18164 -0.662467 0
M  V30 1217 C 129.051 1.57845 0.312074 0
M  V30 1218 O 130.243 1.76552 0.125905 0
M  V30 1219 C 127.372 3.43246 -0.0611295 0
M  V30 1220 C 126.458 4.1062 -1.06077 0
M  V30 1221 N 126.849 4.53491 -2.24008 0
M  V30 1222 C 125.147 4.36949 -0.893964 0
M  V30 1223 C 125.848 5.05731 -2.87422 0
M  V30 1224 N 124.824 4.99236 -2.15091 0
M  V30 1225 H 128.626 2.49038 -1.56068 0
M  V30 1226 H 126.14 1.32003 -0.945988 0
M  V30 1227 H 128.137 4.16145 0.250792 0
M  V30 1228 H 126.797 3.13854 0.832207 0
M  V30 1229 H 127.808 4.46898 -2.6173 0
M  V30 1230 H 124.485 4.17466 -0.0534693 0
M  V30 1231 H 125.875 5.48865 -3.87553 0
M  V30 1232 N 128.595 0.856903 1.32268 0
M  V30 1233 C 129.542 0.301172 2.28827 0
M  V30 1234 C 130.512 -0.593104 1.5515 0
M  V30 1235 O 131.697 -0.527537 1.83362 0
M  V30 1236 C 128.837 -0.502523 3.41422 0
M  V30 1237 C 127.95 0.417797 4.29975 0
M  V30 1238 C 127.085 -0.398749 5.29701 0
M  V30 1239 C 126.124 0.518827 6.09897 0
M  V30 1240 N 125.261 -0.260674 7.01616 0
M  V30 1241 H 130.101 1.12983 2.75751 0
M  V30 1242 H 127.638 0.568582 1.35667 0
M  V30 1243 H 129.596 -0.984141 4.05426 0
M  V30 1244 H 128.226 -1.29599 2.95642 0
M  V30 1245 H 127.278 1.01781 3.66531 0
M  V30 1246 H 128.59 1.12191 4.86019 0
M  V30 1247 H 127.744 -0.943435 5.9932 0
M  V30 1248 H 126.483 -1.13622 4.7428 0
M  V30 1249 H 125.488 1.07538 5.39181 0
M  V30 1250 H 126.713 1.25495 6.67404 0
M  V30 1251 H 124.659 -0.981198 6.4862 0
M  V30 1252 H 124.576 0.384364 7.55022 0
M  V30 1253 H 125.844 -0.787014 7.75517 0
M  V30 1254 N 130.073 -1.45103 0.615059 0
M  V30 1255 C 131.484 -1.85654 0.197383 0
M  V30 1256 C 131.835 -1.51433 -1.24749 0
M  V30 1257 O 130.96 -0.944608 -1.94695 0
M  V30 1258 C 131.555 -3.36972 0.351448 0
M  V30 1259 C 130.114 -3.76398 -0.011593 0
M  V30 1260 C 129.261 -2.69024 0.672394 0
M  V30 1261 H 132.212 -1.35797 0.821263 0
M  V30 1262 H 132.233 -3.78239 -0.414227 0
M  V30 1263 H 131.745 -3.61847 1.40314 0
M  V30 1264 H 129.846 -3.5714 -1.06217 0
M  V30 1265 H 129.959 -4.77532 0.387265 0
M  V30 1266 H 128.323 -2.54465 0.109284 0
M  V30 1267 H 129.106 -2.96735 1.72636 0
M  V30 1268 N 131.551 -0.354651 -1.53558 0
M  V30 1269 C 132.776 0.242153 -2.05981 0
M  V30 1270 C 133.201 1.42553 -1.2272 0
M  V30 1271 O 132.559 1.79656 -0.243604 0
M  V30 1272 C 132.607 0.624367 -3.55154 0
M  V30 1273 O 131.711 1.72301 -3.74681 0
M  V30 1274 H 131.052 0.0378432 -0.662921 0
M  V30 1275 H 133.582 -0.512087 -1.98088 0
M  V30 1276 H 133.592 0.898433 -3.97985 0
M  V30 1277 H 132.267 -0.240989 -4.15201 0
M  V30 1278 H 130.844 1.44535 -3.4375 0
M  V30 1279 N 133.029 1.57378 -0.0835403 0
M  V30 1280 C 133.977 2.14602 0.89714 0
M  V30 1281 C 134.971 1.08589 1.30018 0
M  V30 1282 O 136.177 1.26952 1.27606 0
M  V30 1283 H 132.552 0.686346 0.3073 0
M  V30 1284 H 134.523 2.95845 0.38969 0
M  V30 1285 C 133.272 2.73188 2.15089 0
M  V30 1286 H 132.595 3.54442 1.84962 0
M  V30 1287 H 134.035 3.1681 2.81793 0
M  V30 1288 C 132.494 1.68517 2.91725 0
M  V30 1289 O 133.024 1.11718 3.85852 0
M  V30 1290 N 131.23 1.39277 2.55049 0
M  V30 1291 H 130.777 1.85655 1.78577 0
M  V30 1292 H 130.735 0.694791 3.06627 0
M  V30 1293 N 134.507 -0.190092 1.56449 0
M  V30 1294 C 135.735 -0.925772 1.85033 0
M  V30 1295 C 136.15 -1.76638 0.666658 0
M  V30 1296 O 135.507 -1.78822 -0.364565 0
M  V30 1297 C 135.558 -1.81786 3.12468 0
M  V30 1298 O 135.279 -1.01118 4.26271 0
M  V30 1299 C 136.78 -2.6648 3.54265 0
M  V30 1300 H 134 -0.269872 0.614337 0
M  V30 1301 H 136.544 -0.195837 2.0356 0
M  V30 1302 H 134.699 -2.50136 2.95822 0
M  V30 1303 H 135.113 -1.61956 4.98869 0
M  V30 1304 H 136.587 -3.24722 4.46385 0
M  V30 1305 H 137.064 -3.40434 2.77491 0
M  V30 1306 H 137.67 -2.03493 3.73458 0
M  V30 1307 N 135.985 -1.50799 -0.457987 0
M  V30 1308 C 136.932 -1.70617 -1.5543 0
M  V30 1309 C 137.902 -0.547562 -1.56815 0
M  V30 1310 O 139.087 -0.779647 -1.74144 0
M  V30 1311 C 136.227 -1.81831 -2.93311 0
M  V30 1312 C 135.34 -3.09278 -3.01615 0
M  V30 1313 C 134.475 -3.11209 -4.30491 0
M  V30 1314 C 133.514 -4.33055 -4.32585 0
M  V30 1315 N 132.651 -4.32652 -5.52952 0
M  V30 1316 H 137.491 -2.64207 -1.37836 0
M  V30 1317 H 135.028 -1.30959 -0.669937 0
M  V30 1318 H 136.986 -1.86314 -3.73287 0
M  V30 1319 H 135.616 -0.916685 -3.0951 0
M  V30 1320 H 134.668 -3.14203 -2.1443 0
M  V30 1321 H 135.98 -3.99233 -2.99022 0
M  V30 1322 H 135.134 -3.14494 -5.18824 0
M  V30 1323 H 133.873 -2.19106 -4.35711 0
M  V30 1324 H 132.878 -4.29969 -3.42647 0
M  V30 1325 H 134.103 -5.264 -4.29046 0
M  V30 1326 H 132.049 -3.43409 -5.58933 0
M  V30 1327 H 131.966 -5.16392 -5.52155 0
M  V30 1328 H 133.234 -4.40101 -6.43375 0
M  V30 1329 N 137.463 0.71206 -1.40597 0
M  V30 1330 C 138.709 1.47416 -1.39271 0
M  V30 1331 C 139.042 1.942 0.00388791 0
M  V30 1332 O 138.317 1.68403 0.973179 0
M  V30 1333 C 138.6 2.69774 -2.38525 0
M  V30 1334 C 138.453 2.28861 -3.87224 0
M  V30 1335 C 139.772 3.71939 -2.35264 0
M  V30 1336 H 136.891 0.534713 -0.5072 0
M  V30 1337 H 139.533 0.812375 -1.71757 0
M  V30 1338 H 137.683 3.26238 -2.10953 0
M  V30 1339 H 139.355 1.77852 -4.25636 0
M  V30 1340 H 137.598 1.60824 -4.02887 0
M  V30 1341 H 138.269 3.16584 -4.52193 0
M  V30 1342 H 140.745 3.25113 -2.59694 0
M  V30 1343 H 139.621 4.55186 -3.06753 0
M  V30 1344 H 139.882 4.20484 -1.36549 0
M  V30 1345 N 138.941 1.26152 0.944643 0
M  V30 1346 C 140.218 1.02247 1.66748 0
M  V30 1347 C 140.598 -0.448202 2.06287 0
M  V30 1348 O 139.946 -1.42779 1.78399 0
M  V30 1349 C 140.156 1.96788 2.88228 0
M  V30 1350 C 141.504 2.25201 3.59958 0
M  V30 1351 O 142.528 1.94626 2.98327 0
M  V30 1352 O 141.387 2.77242 4.70956 0
M  V30 1353 H 138.481 0.388517 0.730057 0
M  V30 1354 H 141.027 1.37348 0.99668 0
M  V30 1355 H 139.799 2.96047 2.55875 0
M  V30 1356 H 139.422 1.62145 3.63035 0
M  V30 1357 N 140.419 -1.14872 1.07899 0
M  V30 1358 C 141.366 -2.19791 0.704319 0
M  V30 1359 C 142.336 -1.63238 -0.306987 0
M  V30 1360 O 143.521 -1.8983 -0.192171 0
M  V30 1361 C 140.661 -3.44911 0.114244 0
M  V30 1362 C 139.774 -4.15637 1.1777 0
M  V30 1363 C 138.909 -5.28324 0.552037 0
M  V30 1364 C 137.948 -5.90875 1.59789 0
M  V30 1365 N 137.085 -6.95022 0.994404 0
M  V30 1366 H 141.925 -2.5119 1.60336 0
M  V30 1367 H 139.462 -1.23356 0.801352 0
M  V30 1368 H 141.42 -4.16477 -0.245544 0
M  V30 1369 H 140.05 -3.14011 -0.74813 0
M  V30 1370 H 139.102 -3.42512 1.65499 0
M  V30 1371 H 140.414 -4.5823 1.97046 0
M  V30 1372 H 139.568 -6.06538 0.1402 0
M  V30 1373 H 138.307 -4.86939 -0.272431 0
M  V30 1374 H 137.312 -5.11369 2.01945 0
M  V30 1375 H 138.537 -6.34337 2.42474 0
M  V30 1376 H 136.483 -6.55722 0.190939 0
M  V30 1377 H 136.4 -7.36073 1.72432 0
M  V30 1378 H 137.668 -7.77123 0.608253 0
M  V30 1379 N 141.898 -0.863906 -1.31812 0
M  V30 1380 C 142.845 -0.313303 -2.28664 0
M  V30 1381 C 143.815 0.584868 -1.55462 0
M  V30 1382 O 145 0.517805 -1.83639 0
M  V30 1383 C 142.14 0.48441 -3.41683 0
M  V30 1384 C 141.253 -0.440594 -4.29747 0
M  V30 1385 C 140.388 0.370652 -5.29905 0
M  V30 1386 C 139.427 -0.551164 -6.09613 0
M  V30 1387 N 138.564 0.223462 -7.01744 0
M  V30 1388 H 143.404 -1.14444 -2.75148 0
M  V30 1389 H 140.941 -0.575769 -1.35364 0
M  V30 1390 H 142.899 0.962627 -4.05943 0
M  V30 1391 H 141.529 1.28029 -2.96325 0
M  V30 1392 H 140.581 -1.03724 -3.65986 0
M  V30 1393 H 141.893 -1.14767 -4.85417 0
M  V30 1394 H 141.047 0.911638 -5.99812 0
M  V30 1395 H 139.786 1.11105 -4.74876 0
M  V30 1396 H 138.791 -1.10396 -5.38603 0
M  V30 1397 H 140.016 -1.29032 -6.66729 0
M  V30 1398 H 137.962 0.946787 -6.49132 0
M  V30 1399 H 137.879 -0.424399 -7.54808 0
M  V30 1400 H 139.147 0.745876 -7.75923 0
M  V30 1401 N 143.376 1.44774 -0.622745 0
M  V30 1402 C 144.622 2.0242 -0.124083 0
M  V30 1403 C 144.955 1.4881 1.24777 0
M  V30 1404 O 144.23 0.668799 1.8264 0
M  V30 1405 C 144.513 3.59957 -0.101619 0
M  V30 1406 C 144.366 4.23867 -1.50521 0
M  V30 1407 C 145.685 4.36284 0.578272 0
M  V30 1408 H 142.804 0.735528 -0.0465645 0
M  V30 1409 H 145.446 1.72447 -0.797617 0
M  V30 1410 H 143.596 3.85623 0.471934 0
M  V30 1411 H 145.268 4.09336 -2.12701 0
M  V30 1412 H 143.511 3.81684 -2.06154 0
M  V30 1413 H 144.182 5.32843 -1.4416 0
M  V30 1414 H 146.658 4.16001 0.0906057 0
M  V30 1415 H 145.534 5.46004 0.563149 0
M  V30 1416 H 145.795 4.10271 1.64713 0
M  V30 1417 N 144.854 0.36279 1.53368 0
M  V30 1418 C 145.764 -0.492994 2.29362 0
M  V30 1419 C 146.78 -1.09507 1.35219 0
M  V30 1420 O 147.956 -1.10662 1.68273 0
M  V30 1421 C 145.021 -1.61855 3.066 0
M  V30 1422 C 144.082 -1.04429 4.16405 0
M  V30 1423 C 143.315 -2.11621 4.89951 0
M  V30 1424 O 143.538 -3.32684 4.63333 0
M  V30 1425 O 142.472 -1.74835 5.75948 0
M  V30 1426 H 146.298 0.125331 3.03441 0
M  V30 1427 H 143.883 0.127253 1.48857 0
M  V30 1428 H 145.765 -2.27302 3.54841 0
M  V30 1429 H 144.44 -2.22233 2.3536 0
M  V30 1430 H 143.347 -0.353819 3.72423 0
M  V30 1431 H 144.68 -0.485113 4.89804 0
M  V30 1432 N 146.332 -1.57332 0.0918853 0
M  V30 1433 C 147.743 -1.81496 -0.437739 0
M  V30 1434 C 148.094 -1.00727 -1.6837 0
M  V30 1435 O 147.219 -0.235694 -2.15113 0
M  V30 1436 C 147.814 -3.29197 -0.800939 0
M  V30 1437 C 146.373 -3.54136 -1.27532 0
M  V30 1438 C 145.52 -2.75979 -0.270392 0
M  V30 1439 H 148.471 -1.55494 0.317366 0
M  V30 1440 H 148.492 -3.42344 -1.66074 0
M  V30 1441 H 148.004 -3.87955 0.106078 0
M  V30 1442 H 146.105 -3.00705 -2.20016 0
M  V30 1443 H 146.218 -4.62792 -1.23938 0
M  V30 1444 H 144.582 -2.43349 -0.751872 0
M  V30 1445 H 145.365 -3.37484 0.629248 0
M  V30 1446 N 147.81 0.181792 -1.56548 0
M  V30 1447 C 148.757 1.22521 -1.95595 0
M  V30 1448 C 149.727 1.4454 -0.818373 0
M  V30 1449 O 150.912 1.57454 -1.07763 0
M  V30 1450 C 148.052 2.56193 -2.31212 0
M  V30 1451 C 147.165 2.41641 -3.58097 0
M  V30 1452 C 146.3 3.68108 -3.82975 0
M  V30 1453 C 145.339 3.48445 -5.03242 0
M  V30 1454 N 144.476 4.66956 -5.24306 0
M  V30 1455 H 149.316 0.885226 -2.84548 0
M  V30 1456 H 146.853 0.425718 -1.40805 0
M  V30 1457 H 148.811 3.34088 -2.49882 0
M  V30 1458 H 147.441 2.88208 -1.45382 0
M  V30 1459 H 146.493 1.54976 -3.474 0
M  V30 1460 H 147.805 2.23052 -4.46149 0
M  V30 1461 H 146.959 4.54441 -4.01956 0
M  V30 1462 H 145.698 3.89666 -2.93278 0
M  V30 1463 H 144.703 2.60499 -4.8417 0
M  V30 1464 H 145.928 3.2832 -5.9446 0
M  V30 1465 H 143.874 4.88752 -4.37559 0
M  V30 1466 H 143.791 4.51242 -6.06561 0
M  V30 1467 H 145.059 5.54602 -5.47756 0
M  V30 1468 N 149.288 1.51039 0.449983 0
M  V30 1469 C 150.513 1.6715 1.22783 0
M  V30 1470 C 150.938 0.363081 1.84563 0
M  V30 1471 O 150.296 -0.675433 1.68249 0
M  V30 1472 C 150.344 2.77985 2.29689 0
M  V30 1473 O 149.448 2.40707 3.34864 0
M  V30 1474 H 148.789 0.557746 0.360299 0
M  V30 1475 H 151.319 1.97535 0.533005 0
M  V30 1476 H 151.329 3.01693 2.74673 0
M  V30 1477 H 150.004 3.72935 1.84098 0
M  V30 1478 H 148.581 2.27523 2.95445 0
M  V30 1479 N 150.766 -0.704594 1.40972 0
M  V30 1480 C 152.006 -1.47691 1.41304 0
M  V30 1481 C 152.37 -1.91992 0.0178582 0
M  V30 1482 O 153.571 -2.68599 -0.103996 0
M  V30 1483 C 151.842 -2.66254 2.38419 0
M  V30 1484 S 153.401 -3.55516 2.57204 0
M  V30 1485 H 150.219 -0.504808 0.500689 0
M  V30 1486 H 152.821 -0.822962 1.77335 0
M  V30 1487 H 151.525 -2.31897 3.38603 0
M  V30 1488 H 151.056 -3.3655 2.03711 0
M  V30 1489 H 153.071 -4.61115 1.83268 0
M  V30 1490 N 152.244 -1.26651 -0.937939 0
M  V30 1491 C 153.521 -1.0313 -1.66204 0
M  V30 1492 C 153.901 0.437256 -2.06522 0
M  V30 1493 O 153.249 1.41831 -1.79154 0
M  V30 1494 C 153.459 -1.98314 -2.87181 0
M  V30 1495 C 154.807 -2.27107 -3.58758 0
M  V30 1496 O 155.831 -1.96205 -2.97291 0
M  V30 1497 O 154.69 -2.79736 -4.69479 0
M  V30 1498 H 151.784 -0.392384 -0.727986 0
M  V30 1499 H 154.33 -1.37874 -0.989382 0
M  V30 1500 H 153.102 -2.97399 -2.54302 0
M  V30 1501 H 152.725 -1.64068 -3.6217 0
M  V30 1502 N 153.722 1.14298 -1.08507 0
M  V30 1503 C 154.669 2.19414 -0.715965 0
M  V30 1504 C 155.639 1.63399 0.298326 0
M  V30 1505 O 156.824 1.89929 0.182101 0
M  V30 1506 C 153.964 3.44845 -0.132534 0
M  V30 1507 C 153.077 4.15007 -1.19973 0
M  V30 1508 C 152.212 5.28024 -0.580048 0
M  V30 1509 C 151.251 5.9002 -1.62921 0
M  V30 1510 N 150.388 6.94485 -1.03125 0
M  V30 1511 H 155.228 2.50336 -1.61666 0
M  V30 1512 H 152.765 1.2293 -0.807882 0
M  V30 1513 H 154.723 4.16601 0.223454 0
M  V30 1514 H 153.353 3.14403 0.731467 0
M  V30 1515 H 152.405 3.41629 -1.67313 0
M  V30 1516 H 153.717 4.57178 -1.99473 0
M  V30 1517 H 152.871 6.06455 -0.172364 0
M  V30 1518 H 151.61 4.87076 0.246603 0
M  V30 1519 H 150.615 5.10291 -2.04654 0
M  V30 1520 H 151.84 6.33042 -2.45835 0
M  V30 1521 H 149.786 6.55612 -0.225711 0
M  V30 1522 H 149.703 7.35148 -1.76334 0
M  V30 1523 H 150.971 7.7679 -0.649458 0
M  V30 1524 N 155.201 0.870884 1.31352 0
M  V30 1525 C 156.429 0.49677 2.00848 0
M  V30 1526 C 156.844 -0.910998 1.65367 0
M  V30 1527 O 156.201 -1.59696 0.883374 0
M  V30 1528 C 156.252 0.645308 3.55694 0
M  V30 1529 O 155.973 1.99764 3.89905 0
M  V30 1530 C 157.474 0.272326 4.42463 0
M  V30 1531 H 154.694 0.193462 0.642506 0
M  V30 1532 H 157.238 1.1723 1.67563 0
M  V30 1533 H 155.393 0.0173176 3.87396 0
M  V30 1534 H 155.807 2.00607 4.84621 0
M  V30 1535 H 157.281 0.427208 5.50344 0
M  V30 1536 H 157.758 -0.788587 4.32062 0
M  V30 1537 H 158.364 0.876054 4.1618 0
M  V30 1538 N 156.679 -1.44442 0.630414 0
M  V30 1539 C 157.629 -2.27794 -0.0968103 0
M  V30 1540 C 158.613 -1.38624 -0.816834 0
M  V30 1541 O 159.805 -1.62438 -0.70306 0
M  V30 1542 C 156.934 -3.25929 -1.07819 0
M  V30 1543 C 156.02 -4.22588 -0.357826 0
M  V30 1544 N 156.411 -5.0207 0.613169 0
M  V30 1545 C 154.709 -4.41914 -0.602365 0
M  V30 1546 C 155.41 -5.72351 1.03871 0
M  V30 1547 N 154.386 -5.42287 0.377642 0
M  V30 1548 H 158.188 -2.86653 0.648621 0
M  V30 1549 H 155.702 -1.55871 0.455862 0
M  V30 1550 H 157.699 -3.84399 -1.61378 0
M  V30 1551 H 156.359 -2.68631 -1.82393 0
M  V30 1552 H 157.37 -5.08331 0.990947 0
M  V30 1553 H 154.047 -3.95714 -1.33103 0
M  V30 1554 H 155.437 -6.4619 1.84086 0
M  V30 1555 N 158.157 -0.370918 -1.53173 0
M  V30 1556 C 159.385 0.217704 -2.05751 0
M  V30 1557 C 159.8 1.42018 -1.24404 0
M  V30 1558 O 159.157 1.80245 -0.286033 0
M  V30 1559 C 159.208 0.605954 -3.56385 0
M  V30 1560 O 158.929 -0.548734 -4.3465 0
M  V30 1561 C 160.43 1.2524 -4.25241 0
M  V30 1562 H 157.65 0.0371659 -0.66997 0
M  V30 1563 H 160.194 -0.530832 -1.9749 0
M  V30 1564 H 158.349 1.3044 -3.6478 0
M  V30 1565 H 158.763 -0.23376 -5.23979 0
M  V30 1566 H 160.237 1.47458 -5.3194 0
M  V30 1567 H 160.714 2.2143 -3.79296 0
M  V30 1568 H 161.32 0.595233 -4.21114 0
M  V30 1569 N 159.635 1.57281 -0.100228 0
M  V30 1570 C 160.875 1.96419 0.56558 0
M  V30 1571 C 161.239 0.981265 1.65031 0
M  V30 1572 O 162.44 1.26133 2.37369 0
M  V30 1573 C 160.711 3.39996 1.10171 0
M  V30 1574 S 162.27 4.01134 1.77867 0
M  V30 1575 H 159.088 0.68667 0.184406 0
M  V30 1576 H 161.69 1.94662 -0.180851 0
M  V30 1577 H 160.394 4.09296 0.300803 0
M  V30 1578 H 159.925 3.45361 1.88385 0
M  V30 1579 H 161.94 3.90358 3.06326 0
M  V30 1580 N 161.113 -0.173488 1.56642 0
M  V30 1581 C 162.524 -0.736155 1.71574 0
M  V30 1582 C 162.875 -1.82888 0.710389 0
M  V30 1583 O 162 -2.16017 -0.1287 0
M  V30 1584 C 162.595 -1.34211 3.11083 0
M  V30 1585 C 161.154 -1.85162 3.27707 0
M  V30 1586 C 160.301 -0.729765 2.67525 0
M  V30 1587 H 163.252 0.0518786 1.58615 0
M  V30 1588 H 163.273 -2.21178 3.09613 0
M  V30 1589 H 162.785 -0.546579 3.84232 0
M  V30 1590 H 160.886 -2.67366 2.59512 0
M  V30 1591 H 160.999 -1.99855 4.35425 0
M  V30 1592 H 159.363 -1.14965 2.27278 0
M  V30 1593 H 160.146 0.0538806 3.43258 0
M  V30 1594 N 162.591 -1.51276 -0.441967 0
M  V30 1595 C 164.002 -1.56244 -1.02199 0
M  V30 1596 C 164.353 -0.383149 -1.92422 0
M  V30 1597 O 163.478 0.500613 -2.1053 0
M  V30 1598 C 164.073 -2.83162 -1.86024 0
M  V30 1599 C 162.632 -2.90716 -2.39084 0
M  V30 1600 C 161.779 -2.50858 -1.18175 0
M  V30 1601 H 164.73 -1.5712 -0.223416 0
M  V30 1602 H 164.751 -2.66663 -2.71425 0
M  V30 1603 H 164.263 -3.68974 -1.20331 0
M  V30 1604 H 162.364 -2.09323 -3.08244 0
M  V30 1605 H 162.477 -3.94266 -2.72198 0
M  V30 1606 H 160.841 -2.03951 -1.52565 0
M  V30 1607 H 161.624 -3.3901 -0.541001 0
M  V30 1608 N 164.069 0.697108 -1.41344 0
M  V30 1609 C 165.309 1.46939 -1.42085 0
M  V30 1610 C 165.673 1.9198 -0.0280397 0
M  V30 1611 O 166.874 2.6865 0.0897504 0
M  V30 1612 C 165.145 2.64985 -2.39828 0
M  V30 1613 S 166.704 3.54147 -2.59085 0
M  V30 1614 H 163.522 0.502146 -0.503359 0
M  V30 1615 H 166.124 0.813546 -1.77769 0
M  V30 1616 H 164.828 2.30098 -3.39828 0
M  V30 1617 H 164.359 3.35464 -2.05493 0
M  V30 1618 H 166.374 4.60137 -1.85711 0
M  V30 1619 N 165.547 1.27147 0.931209 0
M  V30 1620 C 166.958 1.12044 1.49342 0
M  V30 1621 C 167.309 -0.295795 1.93957 0
M  V30 1622 O 166.434 -1.18835 1.80852 0
M  V30 1623 C 167.029 2.02781 2.71414 0
M  V30 1624 C 165.588 1.91794 3.2387 0
M  V30 1625 C 164.735 1.95543 1.96617 0
M  V30 1626 H 167.686 1.40091 0.745672 0
M  V30 1627 H 167.707 1.58156 3.46074 0
M  V30 1628 H 167.219 3.05848 2.38911 0
M  V30 1629 H 165.32 0.916992 3.6114 0
M  V30 1630 H 165.433 2.77852 3.90302 0
M  V30 1631 H 163.797 1.39722 2.12955 0
M  V30 1632 H 164.58 3.00259 1.66432 0
M  V30 1633 N 167.025 -1.13721 1.09112 0
M  V30 1634 C 167.988 -2.17222 0.731241 0
M  V30 1635 C 168.988 -1.59035 -0.237566 0
M  V30 1636 O 170.178 -1.74192 -0.0161704 0
M  V30 1637 C 167.31 -3.40804 0.0808443 0
M  V30 1638 H 168.503 -2.50573 1.64783 0
M  V30 1639 H 166.056 -1.28493 0.889897 0
M  V30 1640 H 166.791 -3.1304 -0.847127 0
M  V30 1641 H 166.576 -3.84306 0.777896 0
M  V30 1642 H 168.066 -4.1731 -0.155657 0
M  V30 1643 N 168.503 -0.877838 -1.30888 0
M  V30 1644 C 169.914 -0.544193 -1.78593 0
M  V30 1645 C 170.265 0.939301 -1.72254 0
M  V30 1646 O 169.39 1.7337 -1.29505 0
M  V30 1647 C 169.985 -0.98105 -3.24285 0
M  V30 1648 C 168.544 -0.698935 -3.69854 0
M  V30 1649 C 167.691 -1.168 -2.51502 0
M  V30 1650 H 170.642 -1.06278 -1.17859 0
M  V30 1651 H 170.663 -0.307009 -3.79259 0
M  V30 1652 H 170.175 -2.06079 -3.28866 0
M  V30 1653 H 168.276 0.369112 -3.70767 0
M  V30 1654 H 168.389 -1.28148 -4.61644 0
M  V30 1655 H 166.753 -0.587535 -2.47831 0
M  V30 1656 H 167.536 -2.25533 -2.58824 0
M  V30 1657 N 169.982 1.44106 -0.638065 0
M  V30 1658 C 170.892 2.34513 0.0637334 0
M  V30 1659 C 171.908 1.53018 0.828346 0
M  V30 1660 O 173.084 1.85723 0.779036 0
M  V30 1661 C 170.149 3.31095 1.02844 0
M  V30 1662 C 169.21 4.28497 0.26244 0
M  V30 1663 C 168.443 5.20465 1.1812 0
M  V30 1664 O 168.666 5.16514 2.42011 0
M  V30 1665 O 167.6 5.98251 0.661774 0
M  V30 1666 H 171.426 2.95989 -0.68003 0
M  V30 1667 H 169.011 1.43994 -0.398252 0
M  V30 1668 H 170.893 3.90526 1.58327 0
M  V30 1669 H 169.568 2.72144 1.7527 0
M  V30 1670 H 168.475 3.72592 -0.335602 0
M  V30 1671 H 169.808 4.90388 -0.421936 0
M  V30 1672 N 171.46 0.379036 1.52974 0
M  V30 1673 C 172.39 -0.452706 2.29069 0
M  V30 1674 C 173.371 -1.07237 1.32039 0
M  V30 1675 O 174.556 -1.08708 1.60923 0
M  V30 1676 C 171.686 -1.5856 3.08992 0
M  V30 1677 C 170.64 -1.0925 4.13822 0
M  V30 1678 C 169.966 -2.31668 4.81907 0
M  V30 1679 C 171.266 -0.167702 5.22031 0
M  V30 1680 H 172.96 0.182181 2.98845 0
M  V30 1681 H 170.506 0.0890592 1.43724 0
M  V30 1682 H 172.459 -2.1742 3.6098 0
M  V30 1683 H 171.183 -2.24792 2.36931 0
M  V30 1684 H 169.842 -0.526494 3.628 0
M  V30 1685 H 169.49 -2.96386 4.06404 0
M  V30 1686 H 169.19 -1.9934 5.52754 0
M  V30 1687 H 170.714 -2.91189 5.36695 0
M  V30 1688 H 172.128 -0.664186 5.6944 0
M  V30 1689 H 170.525 0.0653265 6.00064 0
M  V30 1690 H 171.595 0.786347 4.78482 0
M  V30 1691 N 172.938 -1.57226 0.108567 0
M  V30 1692 C 173.868 -2.17778 -0.84232 0
M  V30 1693 C 174.849 -1.11487 -1.2847 0
M  V30 1694 O 176.034 -1.39681 -1.34918 0
M  V30 1695 C 173.164 -2.76888 -2.09644 0
M  V30 1696 C 172.118 -3.88669 -1.79221 0
M  V30 1697 C 171.444 -4.34541 -3.11574 0
M  V30 1698 C 172.744 -5.11251 -1.06864 0
M  V30 1699 H 174.438 -2.97489 -0.337774 0
M  V30 1700 H 171.984 -1.43097 -0.161025 0
M  V30 1701 H 173.937 -3.17904 -2.76614 0
M  V30 1702 H 172.661 -1.94451 -2.62405 0
M  V30 1703 H 171.32 -3.48213 -1.14644 0
M  V30 1704 H 170.968 -3.48977 -3.62249 0
M  V30 1705 H 170.668 -5.09914 -2.91996 0
M  V30 1706 H 172.192 -4.782 -3.7968 0
M  V30 1707 H 173.606 -5.49352 -1.63968 0
M  V30 1708 H 172.003 -5.9214 -0.974178 0
M  V30 1709 H 173.073 -4.8487 -0.0536168 0
M  V30 1710 N 174.416 0.165178 -1.56732 0
M  V30 1711 C 175.664 0.879068 -1.8198 0
M  V30 1712 C 175.985 1.82514 -0.686561 0
M  V30 1713 O 175.255 1.93694 0.293146 0
M  V30 1714 H 173.835 0.327608 -0.671329 0
M  V30 1715 H 176.497 0.163526 -1.94213 0
M  V30 1716 H 175.593 1.45228 -2.76252 0
M  V30 1717 N 175.894 1.51508 0.433938 0
M  V30 1718 C 177.142 1.6402 1.18075 0
M  V30 1719 C 177.463 0.360328 1.91642 0
M  V30 1720 O 176.733 -0.623945 1.85698 0
M  V30 1721 H 175.313 0.6045 0.43885 0
M  V30 1722 H 177.975 1.88452 0.497178 0
M  V30 1723 H 177.071 2.46949 1.90847 0
M  V30 1724 N 177.372 -0.689602 1.41712 0
M  V30 1725 C 178.783 -1.26973 1.36875 0
M  V30 1726 C 179.134 -1.96124 0.054748 0
M  V30 1727 O 178.259 -1.99141 -0.84687 0
M  V30 1728 C 178.854 -2.30912 2.47922 0
M  V30 1729 C 177.413 -2.84486 2.46464 0
M  V30 1730 C 176.56 -1.58603 2.27465 0
M  V30 1731 H 179.511 -0.48396 1.51141 0
M  V30 1732 H 179.532 -3.12331 2.17323 0
M  V30 1733 H 179.044 -1.80554 3.43543 0
M  V30 1734 H 177.145 -3.39005 1.54617 0
M  V30 1735 H 177.258 -3.34511 3.42986 0
M  V30 1736 H 175.622 -1.84632 1.75451 0
M  V30 1737 H 176.405 -1.10233 3.25121 0
M  V30 1738 N 178.85 -1.27639 -0.924453 0
M  V30 1739 C 180.075 -1.17101 -1.71179 0
M  V30 1740 C 180.5 0.268134 -1.86179 0
M  V30 1741 O 179.858 1.19415 -1.36418 0
M  V30 1742 C 179.906 -1.86313 -3.08739 0
M  V30 1743 O 179.01 -1.16331 -3.95652 0
M  V30 1744 H 178.351 -0.407091 -0.524569 0
M  V30 1745 H 180.881 -1.68767 -1.15666 0
M  V30 1746 H 180.891 -1.938 -3.59034 0
M  V30 1747 H 179.566 -2.91001 -2.97138 0
M  V30 1748 H 178.143 -1.16935 -3.54091 0
M  V30 1749 N 180.328 1.1314 -1.09713 0
M  V30 1750 C 181.574 1.84757 -0.836224 0
M  V30 1751 C 181.907 1.8347 0.636598 0
M  V30 1752 O 181.182 1.27491 1.46889 0
M  V30 1753 C 181.465 3.32782 -1.37578 0
M  V30 1754 C 181.318 3.42567 -2.91493 0
M  V30 1755 C 182.637 4.28307 -1.01198 0
M  V30 1756 H 179.756 0.67082 -0.305236 0
M  V30 1757 H 182.398 1.3278 -1.35903 0
M  V30 1758 H 180.548 3.77177 -0.931097 0
M  V30 1759 H 182.22 3.06862 -3.44432 0
M  V30 1760 H 180.463 2.83349 -3.28475 0
M  V30 1761 H 181.134 4.46674 -3.24324 0
M  V30 1762 H 183.61 3.91999 -1.39556 0
M  V30 1763 H 182.486 5.30307 -1.41653 0
M  V30 1764 H 182.747 4.42029 0.0794833 0
M  V30 1765 N 181.806 0.884767 1.30421 0
M  V30 1766 C 183.053 0.503105 1.96151 0
M  V30 1767 C 183.381 -0.947676 1.69851 0
M  V30 1768 O 182.636 -1.68467 0.995861 0
M  V30 1769 C 182.935 0.724318 3.49983 0
M  V30 1770 C 182.601 2.15015 3.96332 0
M  V30 1771 C 181.263 2.54005 4.08699 0
M  V30 1772 C 183.615 3.07936 4.20505 0
M  V30 1773 C 180.943 3.85128 4.42599 0
M  V30 1774 C 183.295 4.3859 4.55874 0
M  V30 1775 C 181.959 4.77474 4.66449 0
M  V30 1776 H 181.229 0.184099 0.717766 0
M  V30 1777 H 183.876 1.12058 1.55291 0
M  V30 1778 H 182.181 0.0238086 3.91793 0
M  V30 1779 H 183.878 0.408617 3.98913 0
M  V30 1780 H 180.468 1.8375 3.87213 0
M  V30 1781 H 184.652 2.79033 4.10431 0
M  V30 1782 H 179.908 4.14996 4.48986 0
M  V30 1783 H 184.082 5.10629 4.7353 0
M  V30 1784 H 181.709 5.79115 4.92473 0
M  V30 1785 N 183.284 -1.43765 0.645699 0
M  V30 1786 C 184.214 -2.33471 -0.0370477 0
M  V30 1787 C 185.195 -1.49042 -0.819779 0
M  V30 1788 O 186.38 -1.77726 -0.782758 0
M  V30 1789 C 183.51 -3.32311 -1.0093 0
M  V30 1790 C 182.464 -4.2667 -0.337201 0
M  V30 1791 C 181.79 -5.1549 -1.42037 0
M  V30 1792 C 183.09 -5.16657 0.765706 0
M  V30 1793 H 184.784 -2.90809 0.712069 0
M  V30 1794 H 182.33 -1.39834 0.343876 0
M  V30 1795 H 184.283 -3.9396 -1.49578 0
M  V30 1796 H 183.007 -2.73213 -1.78948 0
M  V30 1797 H 181.666 -3.66374 0.128771 0
M  V30 1798 H 181.314 -4.52735 -2.1918 0
M  V30 1799 H 181.014 -5.79438 -0.975966 0
M  V30 1800 H 182.538 -5.80012 -1.90838 0
M  V30 1801 H 183.952 -5.72158 0.361702 0
M  V30 1802 H 182.349 -5.89286 1.13413 0
M  V30 1803 H 183.419 -4.56796 1.62683 0
M  V30 1804 N 184.763 -0.387143 -1.52771 0
M  V30 1805 C 186.01 0.195735 -2.01552 0
M  V30 1806 C 186.338 1.46995 -1.27369 0
M  V30 1807 O 185.593 1.92325 -0.361879 0
M  V30 1808 C 185.892 0.512209 -3.53711 0
M  V30 1809 C 185.558 -0.670202 -4.45891 0
M  V30 1810 C 184.22 -0.994586 -4.70809 0
M  V30 1811 C 186.572 -1.46134 -5.00294 0
M  V30 1812 C 183.9 -2.11169 -5.4738 0
M  V30 1813 C 186.252 -2.56903 -5.78086 0
M  V30 1814 C 184.916 -2.89852 -6.01284 0
M  V30 1815 H 184.186 0.0716246 -0.73753 0
M  V30 1816 H 186.833 -0.524046 -1.8419 0
M  V30 1817 H 185.138 1.31329 -3.69134 0
M  V30 1818 H 186.835 0.975804 -3.88946 0
M  V30 1819 H 183.425 -0.407366 -4.2666 0
M  V30 1820 H 187.609 -1.22397 -4.80971 0
M  V30 1821 H 182.865 -2.3707 -5.63567 0
M  V30 1822 H 187.039 -3.18608 -6.19243 0
M  V30 1823 H 184.666 -3.76533 -6.60399 0
M  V30 1824 N 186.241 1.57166 -0.116904 0
M  V30 1825 C 187.652 1.82169 0.408809 0
M  V30 1826 C 188.003 1.03393 1.66746 0
M  V30 1827 O 187.128 0.269886 2.1471 0
M  V30 1828 C 187.723 3.30429 0.748466 0
M  V30 1829 C 186.282 3.5612 1.21882 0
M  V30 1830 C 185.429 2.76374 0.226452 0
M  V30 1831 H 188.38 1.5497 -0.342063 0
M  V30 1832 H 188.401 3.44943 1.60607 0
M  V30 1833 H 187.913 3.87737 -0.167784 0
M  V30 1834 H 186.014 3.04168 2.15204 0
M  V30 1835 H 186.127 4.64705 1.16559 0
M  V30 1836 H 184.491 2.44515 0.713063 0
M  V30 1837 H 185.274 3.3644 -0.682859 0
M  V30 1838 N 187.719 -0.156864 1.56817 0
M  V30 1839 C 189.13 -0.717916 1.72345 0
M  V30 1840 C 189.481 -1.82124 0.729747 0
M  V30 1841 O 188.606 -2.16141 -0.105781 0
M  V30 1842 C 189.201 -1.30904 3.12489 0
M  V30 1843 C 187.76 -1.81676 3.29653 0
M  V30 1844 C 186.907 -0.701349 2.68284 0
M  V30 1845 H 189.858 0.0686989 1.58551 0
M  V30 1846 H 189.879 -2.17882 3.11942 0
M  V30 1847 H 189.391 -0.505796 3.8479 0
M  V30 1848 H 187.492 -2.64598 2.62333 0
M  V30 1849 H 187.605 -1.95226 4.3752 0
M  V30 1850 H 185.969 -1.12548 2.28484 0
M  V30 1851 H 186.752 0.0902846 3.43181 0
M  V30 1852 N 189.197 -1.51736 -0.425897 0
M  V30 1853 C 190.144 -1.73875 -1.51776 0
M  V30 1854 C 191.114 -0.580702 -1.55618 0
M  V30 1855 O 192.299 -0.81641 -1.72451 0
M  V30 1856 C 189.439 -1.88012 -2.89388 0
M  V30 1857 C 188.552 -3.15606 -2.94986 0
M  V30 1858 C 187.687 -3.20271 -4.23793 0
M  V30 1859 C 186.726 -4.42134 -4.23302 0
M  V30 1860 N 185.863 -4.44284 -5.43651 0
M  V30 1861 H 190.703 -2.67071 -1.32201 0
M  V30 1862 H 188.24 -1.32351 -0.642008 0
M  V30 1863 H 190.198 -1.9419 -3.69251 0
M  V30 1864 H 188.828 -0.98213 -3.07496 0
M  V30 1865 H 187.88 -3.18681 -2.07717 0
M  V30 1866 H 189.192 -4.05486 -2.90486 0
M  V30 1867 H 188.346 -3.25428 -5.12036 0
M  V30 1868 H 187.085 -2.28299 -4.30965 0
M  V30 1869 H 186.09 -4.3714 -3.3345 0
M  V30 1870 H 187.315 -5.35382 -4.17783 0
M  V30 1871 H 185.261 -3.55188 -5.51523 0
M  V30 1872 H 185.178 -5.27988 -5.41078 0
M  V30 1873 H 186.446 -4.53649 -6.33895 0
M  V30 1874 N 190.675 0.682077 -1.42076 0
M  V30 1875 C 192.086 1.26246 -1.37546 0
M  V30 1876 C 192.437 1.96092 -0.0651481 0
M  V30 1877 O 191.562 1.99587 0.836297 0
M  V30 1878 C 192.157 2.29594 -2.49143 0
M  V30 1879 C 190.716 2.83175 -2.47969 0
M  V30 1880 C 189.863 1.57395 -2.28303 0
M  V30 1881 H 192.814 0.475937 -1.51395 0
M  V30 1882 H 192.835 3.11175 -2.18976 0
M  V30 1883 H 192.347 1.78729 -3.44496 0
M  V30 1884 H 190.448 3.3818 -1.56413 0
M  V30 1885 H 190.561 3.32687 -3.44755 0
M  V30 1886 H 188.925 1.83699 -1.76428 0
M  V30 1887 H 189.708 1.08507 -3.25701 0
M  V30 1888 N 192.153 1.28127 0.917671 0
M  V30 1889 C 193.1 1.11717 2.0196 0
M  V30 1890 C 194.07 0.0153929 1.66093 0
M  V30 1891 O 195.255 0.179596 1.89953 0
M  V30 1892 C 192.395 0.780927 3.36148 0
M  V30 1893 C 191.508 1.96135 3.84909 0
M  V30 1894 C 190.643 1.56609 5.0759 0
M  V30 1895 C 189.682 2.71339 5.48673 0
M  V30 1896 N 188.819 2.32332 6.62545 0
M  V30 1897 H 193.659 2.06003 2.15329 0
M  V30 1898 H 191.196 1.02535 1.05475 0
M  V30 1899 H 193.154 0.56675 4.13333 0
M  V30 1900 H 191.784 -0.124998 3.22558 0
M  V30 1901 H 190.836 2.28777 3.03916 0
M  V30 1902 H 192.148 2.82165 4.1132 0
M  V30 1903 H 191.302 1.31374 5.92305 0
M  V30 1904 H 190.041 0.677014 4.82978 0
M  V30 1905 H 189.046 2.97276 4.62501 0
M  V30 1906 H 190.271 3.60882 5.75274 0
M  V30 1907 H 188.217 1.45889 6.39572 0
M  V30 1908 H 188.134 3.11899 6.88662 0
M  V30 1909 H 189.402 2.10371 7.50576 0
M  V30 1910 N 193.631 -1.12557 1.10312 0
M  V30 1911 C 194.908 -1.80363 0.756878 0
M  V30 1912 C 195.288 -1.97067 -0.756824 0
M  V30 1913 O 194.636 -1.54601 -1.68259 0
M  V30 1914 C 194.846 -3.14812 1.50647 0
M  V30 1915 C 196.194 -3.90029 1.67817 0
M  V30 1916 O 197.218 -3.24464 1.46974 0
M  V30 1917 O 196.077 -5.07652 2.02365 0
M  V30 1918 H 193.171 -0.780667 0.272926 0
M  V30 1919 H 195.717 -1.19404 1.20586 0
M  V30 1920 H 194.489 -2.97936 2.53672 0
M  V30 1921 H 194.112 -3.83478 1.05026 0
M  V30 1922 N 195.109 -0.891671 -1.2995 0
M  V30 1923 C 196.337 -0.52866 -2.00032 0
M  V30 1924 C 196.752 0.884574 -1.66795 0
M  V30 1925 O 196.109 1.5827 -0.908669 0
M  V30 1926 C 196.16 -0.701814 -3.54622 0
M  V30 1927 O 195.881 -2.05942 -3.86678 0
M  V30 1928 C 197.382 -0.342683 -4.41973 0
M  V30 1929 H 194.602 -0.203659 -0.639347 0
M  V30 1930 H 197.146 -1.19881 -1.65677 0
M  V30 1931 H 195.301 -0.0789468 -3.8732 0
M  V30 1932 H 195.715 -2.08291 -4.81368 0
M  V30 1933 H 197.189 -0.514709 -5.49595 0
M  V30 1934 H 197.666 0.71975 -4.33262 0
M  V30 1935 H 198.272 -0.942154 -4.14733 0
M  V30 1936 N 196.587 1.43421 -0.653314 0
M  V30 1937 C 197.517 2.33487 0.0246656 0
M  V30 1938 C 198.498 1.49475 0.811863 0
M  V30 1939 O 199.683 1.78139 0.773322 0
M  V30 1940 C 196.813 3.32841 0.99166 0
M  V30 1941 C 195.767 4.26842 0.314568 0
M  V30 1942 C 195.093 5.16236 1.39302 0
M  V30 1943 C 196.393 5.16243 -0.793095 0
M  V30 1944 H 198.087 2.90427 -0.727481 0
M  V30 1945 H 195.633 1.39649 -0.351287 0
M  V30 1946 H 197.586 3.94747 1.47487 0
M  V30 1947 H 196.31 2.74158 1.77497 0
M  V30 1948 H 194.969 3.663 -0.148199 0
M  V30 1949 H 194.617 4.53891 2.16776 0
M  V30 1950 H 194.317 5.79948 0.945223 0
M  V30 1951 H 195.841 5.81015 1.87759 0
M  V30 1952 H 197.255 5.71958 -0.392039 0
M  V30 1953 H 195.652 5.88676 -1.16536 0
M  V30 1954 H 196.722 4.55927 -1.65103 0
M  V30 1955 N 198.065 0.39524 1.52563 0
M  V30 1956 C 198.998 -0.4813 2.23067 0
M  V30 1957 C 199.976 -1.05927 1.23362 0
M  V30 1958 O 201.16 -1.10979 1.52368 0
M  V30 1959 C 198.287 -1.66676 2.9485 0
M  V30 1960 C 197.333 -1.21348 4.08873 0
M  V30 1961 S 198.166 -0.190102 5.35162 0
M  V30 1962 C 199.322 -1.38121 6.1047 0
M  V30 1963 H 199.555 0.117381 2.97068 0
M  V30 1964 H 197.088 0.179458 1.53354 0
M  V30 1965 H 199.046 -2.3466 3.36816 0
M  V30 1966 H 197.707 -2.23676 2.20518 0
M  V30 1967 H 196.9 -2.09877 4.58222 0
M  V30 1968 H 196.502 -0.612486 3.68951 0
M  V30 1969 H 198.794 -2.30726 6.37002 0
M  V30 1970 H 199.737 -0.928521 7.01986 0
M  V30 1971 H 200.145 -1.60071 5.41329 0
M  V30 1972 N 199.544 -1.57102 0.125237 0
M  V30 1973 C 200.793 -1.94582 -0.531095 0
M  V30 1974 C 201.106 -1.01126 -1.6743 0
M  V30 1975 O 202.312 -1.28097 -2.39381 0
M  V30 1976 C 200.768 -3.45839 -0.996164 0
M  V30 1977 C 200.376 -4.47842 0.118926 0
M  V30 1978 C 202.12 -3.92227 -1.62352 0
M  V30 1979 C 200.027 -5.90284 -0.363192 0
M  V30 1980 H 198.957 -0.726391 -0.20217 0
M  V30 1981 H 201.608 -1.82339 0.206092 0
M  V30 1982 H 199.99 -3.53338 -1.78796 0
M  V30 1983 H 201.164 -4.52018 0.895358 0
M  V30 1984 H 199.479 -4.11243 0.653324 0
M  V30 1985 H 202.076 -4.96069 -1.99548 0
M  V30 1986 H 202.419 -3.32552 -2.50429 0
M  V30 1987 H 202.952 -3.87554 -0.897019 0
M  V30 1988 H 199.691 -6.53728 0.481679 0
M  V30 1989 H 199.211 -5.89515 -1.10597 0
M  V30 1990 H 200.89 -6.41752 -0.822377 0
M  V30 1991 N 201.022 0.148545 -1.56898 0
M  V30 1992 C 202.247 0.880385 -1.87787 0
M  V30 1993 C 202.672 1.74018 -0.714093 0
M  V30 1994 O 202.03 1.78153 0.336343 0
M  V30 1995 C 202.078 1.71422 -3.17249 0
M  V30 1996 O 201.182 2.8183 -3.01074 0
M  V30 1997 H 200.523 0.245301 -0.617028 0
M  V30 1998 H 203.053 0.139826 -2.04122 0
M  V30 1999 H 203.063 2.10954 -3.49231 0
M  V30 2000 H 201.738 1.08284 -4.01556 0
M  V30 2001 H 200.315 2.45715 -2.80497 0
M  V30 2002 N 202.5 1.5196 0.417844 0
M  V30 2003 C 203.916 1.40569 0.755816 0
M  V30 2004 C 204.116 0.503316 1.95113 0
M  V30 2005 O 203.172 -0.0341925 2.52477 0
M  V30 2006 C 204.485 2.82947 1.01791 0
M  V30 2007 C 206.033 2.92231 1.12116 0
M  V30 2008 C 206.508 4.35559 1.41608 0
M  V30 2009 N 207.999 4.38753 1.48491 0
M  V30 2010 C 208.734 5.46705 1.7292 0
M  V30 2011 N 208.23 6.64788 1.95011 0
M  V30 2012 N 210.023 5.34209 1.74863 0
M  V30 2013 H 202.174 2.09168 -0.369098 0
M  V30 2014 H 204.437 0.942409 -0.102809 0
M  V30 2015 H 204.143 3.5106 0.212081 0
M  V30 2016 H 204.017 3.23462 1.94042 0
M  V30 2017 H 206.404 2.24304 1.9176 0
M  V30 2018 H 206.485 2.55185 0.177225 0
M  V30 2019 H 206.129 5.04042 0.624848 0
M  V30 2020 H 206.059 4.70133 2.37239 0
M  V30 2021 H 208.55 3.5363 1.33244 0
M  V30 2022 H 208.863 7.42845 2.13076 0
M  V30 2023 H 207.208 6.67869 1.92293 0
M  V30 2024 H 210.399 4.40937 1.57137 0
M  V30 2025 H 210.572 6.18415 1.93563 0
M  V30 2026 N 203.978 -0.674533 1.42435 0
M  V30 2027 C 205.206 -1.46283 1.46317 0
M  V30 2028 C 205.621 -1.88653 0.0745836 0
M  V30 2029 O 204.978 -1.58151 -0.91074 0
M  V30 2030 C 205.029 -2.71178 2.3905 0
M  V30 2031 O 204.75 -2.30586 3.72507 0
M  V30 2032 C 206.251 -3.64738 2.51955 0
M  V30 2033 H 203.471 -0.450104 0.497642 0
M  V30 2034 H 206.015 -0.828792 1.86953 0
M  V30 2035 H 204.17 -3.3077 2.01667 0
M  V30 2036 H 204.584 -3.11241 4.22172 0
M  V30 2037 H 206.058 -4.49096 3.20962 0
M  V30 2038 H 206.535 -4.10656 1.55752 0
M  V30 2039 H 207.141 -3.11038 2.90061 0
M  V30 2040 N 205.456 -1.28612 -0.910864 0
M  V30 2041 C 206.867 -1.14406 -1.47541 0
M  V30 2042 C 207.218 0.264901 -1.94403 0
M  V30 2043 O 206.343 1.15942 -1.82719 0
M  V30 2044 C 206.938 -2.07073 -2.68153 0
M  V30 2045 C 205.497 -1.96923 -3.20778 0
M  V30 2046 C 204.644 -1.98646 -1.93481 0
M  V30 2047 H 207.595 -1.41259 -0.723291 0
M  V30 2048 H 207.616 -1.63642 -3.43514 0
M  V30 2049 H 207.128 -3.09611 -2.34015 0
M  V30 2050 H 205.229 -0.97433 -3.59635 0
M  V30 2051 H 205.342 -2.84026 -3.85832 0
M  V30 2052 H 203.706 -1.43093 -2.10705 0
M  V30 2053 H 204.489 -3.02868 -1.61634 0
M  V30 2054 N 206.934 1.1197 -1.10907 0
M  V30 2055 C 207.844 2.21433 -0.774896 0
M  V30 2056 C 208.86 1.72478 0.229657 0
M  V30 2057 O 210.036 2.01288 0.0672008 0
M  V30 2058 C 207.101 3.4602 -0.216986 0
M  V30 2059 C 206.162 4.09791 -1.27944 0
M  V30 2060 C 205.395 5.28431 -0.748055 0
M  V30 2061 O 205.618 5.68823 0.423833 0
M  V30 2062 O 204.552 5.82644 -1.51027 0
M  V30 2063 H 208.378 2.5242 -1.68873 0
M  V30 2064 H 205.963 1.20399 -0.884555 0
M  V30 2065 H 207.845 4.21304 0.090059 0
M  V30 2066 H 206.52 3.16698 0.669633 0
M  V30 2067 H 205.427 3.36265 -1.63941 0
M  V30 2068 H 206.76 4.4328 -2.13925 0
M  V30 2069 N 208.412 0.89855 1.29475 0
M  V30 2070 C 209.658 0.524658 1.95896 0
M  V30 2071 C 209.991 -0.926468 1.70676 0
M  V30 2072 O 209.266 -1.65665 1.01908 0
M  V30 2073 C 209.549 0.81633 3.50725 0
M  V30 2074 C 209.402 2.31907 3.85408 0
M  V30 2075 C 210.721 0.302038 4.39062 0
M  V30 2076 H 207.84 0.19209 0.711527 0
M  V30 2077 H 210.482 1.12502 1.53112 0
M  V30 2078 H 208.632 0.305369 3.87298 0
M  V30 2079 H 210.304 2.89949 3.58786 0
M  V30 2080 H 208.547 2.78027 3.32992 0
M  V30 2081 H 209.218 2.47373 4.93468 0
M  V30 2082 H 211.694 0.739551 4.09475 0
M  V30 2083 H 210.57 0.535331 5.46283 0
M  V30 2084 H 210.831 -0.797216 4.34853 0
M  V30 2085 N 209.89 -1.43072 0.660911 0
M  V30 2086 C 211.118 -2.06067 0.185422 0
M  V30 2087 C 211.533 -1.49582 -1.15198 0
M  V30 2088 O 210.89 -0.630134 -1.71276 0
M  V30 2089 C 210.941 -3.61371 0.0966523 0
M  V30 2090 O 210.662 -4.15758 1.38119 0
M  V30 2091 C 212.163 -4.41455 -0.403996 0
M  V30 2092 H 209.383 -0.664459 0.0934604 0
M  V30 2093 H 211.927 -1.83447 0.90373 0
M  V30 2094 H 210.082 -3.8315 -0.572259 0
M  V30 2095 H 210.496 -5.09499 1.24542 0
M  V30 2096 H 211.97 -5.50437 -0.415045 0
M  V30 2097 H 212.447 -4.15036 -1.43674 0
M  V30 2098 H 213.053 -4.24663 0.232691 0
M  V30 2099 N 211.368 -0.403325 -1.52352 0
M  V30 2100 C 212.608 0.173946 -2.03659 0
M  V30 2101 C 212.972 1.42869 -1.28267 0
M  V30 2102 O 214.173 2.08403 -1.69769 0
M  V30 2103 C 212.444 0.421478 -3.54906 0
M  V30 2104 S 214.003 0.967027 -4.28012 0
M  V30 2105 H 210.821 0.0477461 -0.709395 0
M  V30 2106 H 213.423 -0.554906 -1.87459 0
M  V30 2107 H 212.127 -0.498616 -4.0736 0
M  V30 2108 H 211.658 1.17837 -3.75337 0
M  V30 2109 H 213.673 2.24812 -4.4235 0
M  V30 2110 N 212.846 1.57033 -0.133567 0
M  V30 2111 C 214.092 1.95976 0.521649 0
M  V30 2112 C 214.425 1.01779 1.65393 0
M  V30 2113 O 213.7 0.0576581 1.94415 0
M  V30 2114 C 213.983 3.44738 1.04057 0
M  V30 2115 C 213.836 4.49711 -0.0892897 0
M  V30 2116 C 215.155 3.95682 1.92675 0
M  V30 2117 H 212.274 0.712579 0.188149 0
M  V30 2118 H 214.916 1.88813 -0.212076 0
M  V30 2119 H 213.066 3.50973 1.66583 0
M  V30 2120 H 214.738 4.55565 -0.725152 0
M  V30 2121 H 212.981 4.27261 -0.750378 0
M  V30 2122 H 213.652 5.51099 0.315284 0
M  V30 2123 H 216.128 3.91841 1.39998 0
M  V30 2124 H 215.004 5.00262 2.25897 0
M  V30 2125 H 215.265 3.37239 2.85872 0
M  V30 2126 N 214.325 -0.140222 1.56975 0
M  V30 2127 C 215.571 -0.852949 1.83991 0
M  V30 2128 C 215.904 -1.80512 0.716187 0
M  V30 2129 O 215.179 -1.92479 -0.279681 0
M  V30 2130 C 215.462 -1.6215 3.21527 0
M  V30 2131 C 215.315 -0.690363 4.4447 0
M  V30 2132 C 216.634 -2.58247 3.56366 0
M  V30 2133 H 213.753 -0.308634 0.669264 0
M  V30 2134 H 216.395 -0.117898 1.89634 0
M  V30 2135 H 214.545 -2.24812 3.16847 0
M  V30 2136 H 216.217 -0.0742264 4.6124 0
M  V30 2137 H 214.46 -0.000396433 4.338 0
M  V30 2138 H 215.131 -1.2643 5.37326 0
M  V30 2139 H 217.607 -2.05701 3.61699 0
M  V30 2140 H 216.483 -3.09067 4.53617 0
M  V30 2141 H 216.744 -3.39923 2.82674 0
M  V30 2142 N 215.803 -1.52179 -0.40978 0
M  V30 2143 C 217.049 -1.66453 -1.15851 0
M  V30 2144 C 217.382 -0.392972 -1.90182 0
M  V30 2145 O 216.657 0.608579 -1.84734 0
M  V30 2146 C 216.94 -2.88612 -2.15349 0
M  V30 2147 C 216.793 -4.25815 -1.44918 0
M  V30 2148 C 218.112 -3.06294 -3.16026 0
M  V30 2149 H 215.231 -0.60575 -0.419805 0
M  V30 2150 H 217.873 -1.84732 -0.444314 0
M  V30 2151 H 216.023 -2.73158 -2.76255 0
M  V30 2152 H 217.695 -4.52995 -0.871365 0
M  V30 2153 H 215.938 -4.27247 -0.751159 0
M  V30 2154 H 216.609 -5.07337 -2.17516 0
M  V30 2155 H 219.085 -3.20641 -2.65195 0
M  V30 2156 H 217.961 -3.93283 -3.8291 0
M  V30 2157 H 218.222 -2.19579 -3.83715 0
M  V30 2158 N 217.281 0.66697 -1.42791 0
M  V30 2159 C 218.558 1.4234 -1.34159 0
M  V30 2160 C 218.938 2.11093 0.0172729 0
M  V30 2161 O 218.286 2.03808 1.03318 0
M  V30 2162 C 218.496 2.41942 -2.51526 0
M  V30 2163 C 219.844 3.06353 -2.93995 0
M  V30 2164 O 220.868 2.52269 -2.51473 0
M  V30 2165 O 219.727 4.04376 -3.67617 0
M  V30 2166 H 216.821 0.635277 -0.529483 0
M  V30 2167 H 219.367 0.695034 -1.54814 0
M  V30 2168 H 218.139 1.89991 -3.42081 0
M  V30 2169 H 217.762 3.22249 -2.32898 0
M  V30 2170 N 218.759 1.29093 0.90403 0
M  V30 2171 C 220.005 1.16986 1.65656 0
M  V30 2172 C 220.338 -0.278925 1.92186 0
M  V30 2173 O 219.613 -1.2019 1.5292 0
M  V30 2174 C 219.896 1.97908 3.0084 0
M  V30 2175 C 219.749 3.50903 2.81403 0
M  V30 2176 C 221.068 1.80208 4.01513 0
M  V30 2177 H 218.187 0.426346 0.601164 0
M  V30 2178 H 220.829 1.58518 1.04747 0
M  V30 2179 H 218.979 1.62616 3.52829 0
M  V30 2180 H 220.651 3.96153 2.36348 0
M  V30 2181 H 218.894 3.76045 2.1627 0
M  V30 2182 H 219.565 4.02791 3.77443 0
M  V30 2183 H 222.041 2.11025 3.58619 0
M  V30 2184 H 220.917 2.39184 4.94047 0
M  V30 2185 H 221.178 0.756119 4.35586 0
M  V30 2186 N 220.237 -1.11381 1.11499 0
M  V30 2187 C 221.462 -1.87475 0.887019 0
M  V30 2188 C 221.887 -1.79639 -0.557796 0
M  V30 2189 O 221.245 -1.15924 -1.39396 0
M  V30 2190 C 221.293 -3.34213 1.35403 0
M  V30 2191 O 220.397 -4.0903 0.526146 0
M  V30 2192 H 219.738 -0.582099 0.319463 0
M  V30 2193 H 222.268 -1.40785 1.48461 0
M  V30 2194 H 222.278 -3.8506 1.34881 0
M  V30 2195 H 220.953 -3.39232 2.40612 0
M  V30 2196 H 219.53 -3.68082 0.597522 0
M  V30 2197 N 221.715 -0.905404 -1.28997 0
M  V30 2198 C 222.665 -0.358713 -2.25161 0
M  V30 2199 C 223.649 0.524449 -1.52113 0
M  V30 2200 O 224.841 0.365534 -1.73184 0
M  V30 2201 C 221.97 0.407609 -3.40872 0
M  V30 2202 C 221.056 -0.490797 -4.21251 0
M  V30 2203 N 221.447 -1.60061 -4.79806 0
M  V30 2204 C 219.745 -0.289636 -4.45059 0
M  V30 2205 C 220.446 -2.15757 -5.40207 0
M  V30 2206 N 219.422 -1.44988 -5.23908 0
M  V30 2207 H 223.224 -1.20642 -2.67998 0
M  V30 2208 H 220.738 -0.757103 -1.43672 0
M  V30 2209 H 222.735 0.816046 -4.08835 0
M  V30 2210 H 221.395 1.25251 -2.9957 0
M  V30 2211 H 222.406 -1.98329 -4.7842 0
M  V30 2212 H 219.083 0.51643 -4.14294 0
M  V30 2213 H 220.473 -3.09069 -5.96595 0
M  V30 2214 N 223.193 1.4272 -0.668489 0
M  V30 2215 C 224.103 2.34596 0.0139753 0
M  V30 2216 C 225.119 1.5474 0.795703 0
M  V30 2217 O 226.295 1.87334 0.739466 0
M  V30 2218 C 223.36 3.33202 0.957982 0
M  V30 2219 C 222.421 4.28957 0.17149 0
M  V30 2220 C 221.654 5.22853 1.07053 0
M  V30 2221 O 221.877 5.21531 2.31001 0
M  V30 2222 O 220.811 5.9952 0.534727 0
M  V30 2223 H 224.637 2.9448 -0.742661 0
M  V30 2224 H 222.222 1.43117 -0.428705 0
M  V30 2225 H 224.104 3.93796 1.50008 0
M  V30 2226 H 222.779 2.758 1.69458 0
M  V30 2227 H 221.686 3.71796 -0.414558 0
M  V30 2228 H 223.019 4.89383 -0.52586 0
M  V30 2229 N 224.671 0.411399 1.52136 0
M  V30 2230 C 225.948 -0.222308 1.94333 0
M  V30 2231 C 226.328 -1.6242 1.34844 0
M  V30 2232 O 225.676 -2.22384 0.525145 0
M  V30 2233 C 225.886 -0.226345 3.48265 0
M  V30 2234 C 227.234 -0.444592 4.22266 0
M  V30 2235 O 228.258 -0.305602 3.54887 0
M  V30 2236 O 227.117 -0.718749 5.41753 0
M  V30 2237 H 224.211 -0.143907 0.814383 0
M  V30 2238 H 226.757 0.467506 1.63133 0
M  V30 2239 H 225.529 0.75475 3.83952 0
M  V30 2240 H 225.152 -0.960163 3.85832 0
M  V30 2241 N 226.149 -1.5696 0.141893 0
M  V30 2242 C 227.56 -1.82797 -0.379776 0
M  V30 2243 C 227.911 -1.06033 -1.6508 0
M  V30 2244 O 227.036 -0.304011 -2.14254 0
M  V30 2245 C 227.631 -3.31578 -0.695802 0
M  V30 2246 C 226.19 -3.58014 -1.16201 0
M  V30 2247 C 225.337 -2.76699 -0.182455 0
M  V30 2248 H 228.288 -1.54406 0.366675 0
M  V30 2249 H 228.309 -3.47454 -1.55099 0
M  V30 2250 H 227.821 -3.87421 0.229449 0
M  V30 2251 H 225.922 -3.07553 -2.10338 0
M  V30 2252 H 226.035 -4.66501 -1.09151 0
M  V30 2253 H 224.399 -2.45618 -0.674072 0
M  V30 2254 H 225.182 -3.35311 0.736297 0
M  V30 2255 N 227.627 0.131896 -1.57047 0
M  V30 2256 C 228.537 1.1815 -2.02676 0
M  V30 2257 C 229.553 1.46113 -0.944824 0
M  V30 2258 O 230.729 1.57485 -1.25541 0
M  V30 2259 C 227.794 2.49139 -2.41103 0
M  V30 2260 C 226.855 2.28688 -3.63318 0
M  V30 2261 C 226.088 3.53431 -3.99903 0
M  V30 2262 O 226.311 4.60223 -3.36973 0
M  V30 2263 O 225.245 3.45198 -4.93074 0
M  V30 2264 H 229.071 0.824069 -2.92306 0
M  V30 2265 H 226.656 0.341745 -1.45439 0
M  V30 2266 H 228.538 3.26338 -2.66611 0
M  V30 2267 H 227.213 2.84382 -1.54624 0
M  V30 2268 H 226.12 1.4939 -3.42977 0
M  V30 2269 H 227.453 1.98355 -4.50462 0
M  V30 2270 N 229.106 1.52395 0.401703 0
M  V30 2271 C 230.352 1.67065 1.14966 0
M  V30 2272 C 230.685 0.403052 1.89971 0
M  V30 2273 O 229.96 -0.598774 1.85054 0
M  V30 2274 C 230.243 2.8975 2.13815 0
M  V30 2275 C 230.096 4.26578 1.42658 0
M  V30 2276 C 231.415 3.07965 3.14397 0
M  V30 2277 H 228.534 0.607968 0.416587 0
M  V30 2278 H 231.176 1.84965 0.434511 0
M  V30 2279 H 229.326 2.74619 2.74803 0
M  V30 2280 H 230.998 4.53451 0.847329 0
M  V30 2281 H 229.241 4.27639 0.72849 0
M  V30 2282 H 229.912 5.08483 2.14823 0
M  V30 2283 H 232.388 3.22043 2.63491 0
M  V30 2284 H 231.264 3.95308 3.80819 0
M  V30 2285 H 231.525 2.21611 3.82545 0
M  V30 2286 N 230.584 -0.659388 1.43143 0
M  V30 2287 C 231.531 -1.77249 1.47822 0
M  V30 2288 C 232.501 -1.62818 0.328558 0
M  V30 2289 O 233.686 -1.83151 0.534838 0
M  V30 2290 C 230.826 -3.15371 1.40126 0
M  V30 2291 C 229.939 -3.4098 2.65249 0
M  V30 2292 C 229.074 -4.68915 2.49584 0
M  V30 2293 C 228.113 -4.87608 3.70006 0
M  V30 2294 N 227.25 -6.06796 3.53189 0
M  V30 2295 H 232.09 -1.72584 2.42938 0
M  V30 2296 H 229.627 -0.842297 1.20598 0
M  V30 2297 H 231.585 -3.9521 1.33659 0
M  V30 2298 H 230.215 -3.19121 0.485964 0
M  V30 2299 H 229.267 -2.55282 2.8202 0
M  V30 2300 H 230.579 -3.50681 3.54717 0
M  V30 2301 H 229.733 -5.56871 2.4079 0
M  V30 2302 H 228.472 -4.61524 1.5763 0
M  V30 2303 H 227.477 -3.9809 3.79215 0
M  V30 2304 H 228.702 -4.96834 4.62961 0
M  V30 2305 H 226.648 -6.00549 2.63965 0
M  V30 2306 H 226.565 -6.17428 4.36255 0
M  V30 2307 H 227.833 -6.9739 3.48236 0
M  V30 2308 N 232.062 -1.29571 -0.897171 0
M  V30 2309 C 233.309 -1.17689 -1.6479 0
M  V30 2310 C 233.637 0.27107 -1.92602 0
M  V30 2311 O 232.892 1.21193 -1.53658 0
M  V30 2312 C 233.191 -1.9382 -3.00281 0
M  V30 2313 C 232.857 -3.43522 -2.92068 0
M  V30 2314 C 231.519 -3.84348 -2.89535 0
M  V30 2315 C 233.871 -4.38906 -2.81089 0
M  V30 2316 C 231.199 -5.18869 -2.73846 0
M  V30 2317 C 233.551 -5.73521 -2.66939 0
M  V30 2318 C 232.215 -6.13601 -2.62774 0
M  V30 2319 H 231.485 -0.430654 -0.603008 0
M  V30 2320 H 234.132 -1.60536 -1.04404 0
M  V30 2321 H 232.437 -1.4357 -3.64547 0
M  V30 2322 H 234.134 -1.82028 -3.57305 0
M  V30 2323 H 230.724 -3.11072 -2.94842 0
M  V30 2324 H 234.908 -4.08315 -2.82121 0
M  V30 2325 H 230.164 -5.4903 -2.69027 0
M  V30 2326 H 234.338 -6.47078 -2.57416 0
M  V30 2327 H 231.965 -7.17786 -2.50375 0
M  V30 2328 N 233.54 1.10788 -1.12088 0
M  V30 2329 C 234.488 2.19111 -0.780587 0
M  V30 2330 C 235.482 1.67818 0.230961 0
M  V30 2331 O 236.688 1.79777 0.0895427 0
M  V30 2332 H 233.063 0.714477 -0.234578 0
M  V30 2333 H 235.034 2.45055 -1.70266 0
M  V30 2334 C 233.783 3.46818 -0.24747 0
M  V30 2335 H 233.106 3.86646 -1.01712 0
M  V30 2336 H 234.546 4.23973 -0.0476291 0
M  V30 2337 C 233.005 3.20968 1.02378 0
M  V30 2338 O 233.535 3.42298 2.10226 0
M  V30 2339 N 231.741 2.74658 0.949271 0
M  V30 2340 H 231.288 2.57501 0.0715173 0
M  V30 2341 H 231.246 2.57739 1.80049 0
M  V30 2342 N 235.018 0.912232 1.28515 0
M  V30 2343 C 236.264 0.554851 1.95686 0
M  V30 2344 C 236.619 -0.89138 1.70506 0
M  V30 2345 O 235.912 -1.62529 1.01464 0
M  V30 2346 C 236.106 0.798392 3.48368 0
M  V30 2347 C 235.935 2.26674 3.88393 0
M  V30 2348 C 234.705 2.91657 4.12631 0
M  V30 2349 C 236.903 3.24303 3.99164 0
M  V30 2350 N 234.885 4.28805 4.39317 0
M  V30 2351 C 236.256 4.4661 4.30046 0
M  V30 2352 C 238.311 3.19723 3.81683 0
M  V30 2353 C 237.014 5.64915 4.45268 0
M  V30 2354 C 239.04 4.37325 3.98121 0
M  V30 2355 C 238.402 5.58406 4.29375 0
M  V30 2356 H 234.501 0.252876 0.739985 0
M  V30 2357 H 237.085 1.17565 1.55199 0
M  V30 2358 H 235.256 0.20688 3.87849 0
M  V30 2359 H 236.988 0.405193 4.02666 0
M  V30 2360 H 233.743 2.42393 4.06869 0
M  V30 2361 H 234.167 4.99712 4.56746 0
M  V30 2362 H 238.809 2.27191 3.56573 0
M  V30 2363 H 236.527 6.57927 4.6921 0
M  V30 2364 H 240.113 4.35282 3.86033 0
M  V30 2365 H 238.993 6.47889 4.41825 0
M  V30 2366 N 236.496 -1.42363 0.676048 0
M  V30 2367 C 237.726 -2.05561 0.206967 0
M  V30 2368 C 238.134 -1.50887 -1.14148 0
M  V30 2369 O 237.477 -0.643933 -1.72044 0
M  V30 2370 C 237.539 -3.5944 0.0659508 0
M  V30 2371 C 237.203 -4.36812 1.34331 0
M  V30 2372 C 238.2 -4.67383 2.27704 0
M  V30 2373 C 235.885 -4.76429 1.59125 0
M  V30 2374 C 237.879 -5.36509 3.44147 0
M  V30 2375 C 235.566 -5.45294 2.75857 0
M  V30 2376 C 236.564 -5.75259 3.68193 0
M  V30 2377 O 236.252 -6.42712 4.82883 0
M  V30 2378 H 235.984 -0.668872 0.0979084 0
M  V30 2379 H 238.538 -1.83467 0.923531 0
M  V30 2380 H 236.768 -3.80197 -0.706204 0
M  V30 2381 H 238.457 -4.0427 -0.363418 0
M  V30 2382 H 239.223 -4.37275 2.09799 0
M  V30 2383 H 235.102 -4.52498 0.881258 0
M  V30 2384 H 238.646 -5.59814 4.16238 0
M  V30 2385 H 234.543 -5.7482 2.93688 0
M  V30 2386 H 235.311 -6.61204 4.82444 0
M  V30 2387 N 237.974 -0.419461 -1.51915 0
M  V30 2388 C 239.22 0.153166 -2.02221 0
M  V30 2389 C 239.553 1.43907 -1.30401 0
M  V30 2390 O 238.828 1.90055 -0.413438 0
M  V30 2391 C 239.111 0.390291 -3.57979 0
M  V30 2392 C 238.964 -0.913014 -4.40436 0
M  V30 2393 C 240.283 1.16794 -4.2432 0
M  V30 2394 H 237.402 0.0541924 -0.735005 0
M  V30 2395 H 240.044 -0.554955 -1.81715 0
M  V30 2396 H 238.194 0.993491 -3.75582 0
M  V30 2397 H 239.866 -1.54882 -4.34522 0
M  V30 2398 H 238.109 -1.52168 -4.06236 0
M  V30 2399 H 238.78 -0.701361 -5.47526 0
M  V30 2400 H 241.256 0.657161 -4.10878 0
M  V30 2401 H 240.132 1.3026 -5.3322 0
M  V30 2402 H 240.393 2.19132 -3.83971 0
M  V30 2403 N 239.452 1.56882 -0.150215 0
M  V30 2404 C 240.729 1.87844 0.545327 0
M  V30 2405 C 241.109 1.0567 1.82749 0
M  V30 2406 O 240.457 0.144442 2.28043 0
M  V30 2407 C 240.667 3.39526 0.80767 0
M  V30 2408 C 242.015 4.08814 1.14703 0
M  V30 2409 O 243.039 3.44723 0.896917 0
M  V30 2410 O 241.898 5.22004 1.61784 0
M  V30 2411 H 238.992 0.778677 0.278553 0
M  V30 2412 H 241.538 1.68666 -0.187068 0
M  V30 2413 H 240.31 3.91173 -0.0996096 0
M  V30 2414 H 239.933 3.64243 1.59413 0
M  V30 2415 N 240.93 -0.123565 1.57115 0
M  V30 2416 C 242.178 -0.83051 1.84247 0
M  V30 2417 C 242.499 -1.80629 0.73471 0
M  V30 2418 O 241.769 -1.94403 -0.241688 0
M  V30 2419 H 240.349 -0.309694 0.679778 0
M  V30 2420 H 243.011 -0.111976 1.94578 0
M  V30 2421 H 242.107 -1.37852 2.80006 0
M  V30 2422 N 242.408 -1.52605 -0.393616 0
M  V30 2423 C 243.654 -1.67672 -1.14079 0
M  V30 2424 C 243.987 -0.413121 -1.89755 0
M  V30 2425 O 243.262 0.588952 -1.85369 0
M  V30 2426 C 243.545 -2.9088 -2.12276 0
M  V30 2427 C 243.398 -4.27329 -1.40394 0
M  V30 2428 C 244.717 -3.09628 -3.12759 0
M  V30 2429 H 241.836 -0.610168 -0.413356 0
M  V30 2430 H 244.478 -1.85193 -0.424696 0
M  V30 2431 H 242.628 -2.76073 -2.73342 0
M  V30 2432 H 244.3 -4.53894 -0.82327 0
M  V30 2433 H 242.543 -4.2802 -0.705801 0
M  V30 2434 H 243.214 -5.09615 -2.12123 0
M  V30 2435 H 245.69 -3.23436 -2.61779 0
M  V30 2436 H 244.566 -3.97322 -3.78717 0
M  V30 2437 H 244.827 -2.23637 -3.81365 0
M  V30 2438 N 243.887 0.651787 -1.4349 0
M  V30 2439 C 244.797 1.79368 -1.5121 0
M  V30 2440 C 245.813 1.69361 -0.399093 0
M  V30 2441 O 246.989 1.90505 -0.653431 0
M  V30 2442 C 244.054 3.15653 -1.43401 0
M  V30 2443 C 243.115 3.37446 -2.65384 0
M  V30 2444 C 242.348 4.67229 -2.57939 0
M  V30 2445 O 242.571 5.46676 -1.62792 0
M  V30 2446 O 241.505 4.90773 -3.48462 0
M  V30 2447 H 245.331 1.7581 -2.47638 0
M  V30 2448 H 242.916 0.810447 -1.25507 0
M  V30 2449 H 244.798 3.96935 -1.41494 0
M  V30 2450 H 243.473 3.19798 -0.501085 0
M  V30 2451 H 242.38 2.55923 -2.72863 0
M  V30 2452 H 243.713 3.38148 -3.57654 0
M  V30 2453 N 245.365 1.30045 0.890287 0
M  V30 2454 C 246.611 1.18737 1.64406 0
M  V30 2455 C 246.944 -0.258525 1.92472 0
M  V30 2456 O 246.219 -1.18562 1.54186 0
M  V30 2457 C 246.502 2.01087 2.98724 0
M  V30 2458 C 246.355 3.53867 2.77665 0
M  V30 2459 C 247.674 1.84457 3.9958 0
M  V30 2460 H 244.793 0.432698 0.596608 0
M  V30 2461 H 247.435 1.5962 1.0306 0
M  V30 2462 H 245.585 1.66349 3.51084 0
M  V30 2463 H 247.257 3.98637 2.32133 0
M  V30 2464 H 245.5 3.78318 2.12269 0
M  V30 2465 H 246.171 4.06772 3.7315 0
M  V30 2466 H 248.647 2.14817 3.56361 0
M  V30 2467 H 247.523 2.44411 4.91482 0
M  V30 2468 H 247.784 0.802276 4.3476 0
M  V30 2469 N 246.843 -1.10192 1.12674 0
M  V30 2470 C 247.793 -2.14754 0.765801 0
M  V30 2471 C 248.777 -1.59154 -0.236409 0
M  V30 2472 O 249.969 -1.76951 -0.0415261 0
M  V30 2473 C 247.098 -3.42563 0.224827 0
M  V30 2474 C 246.184 -4.05091 1.25548 0
M  V30 2475 N 246.575 -4.42287 2.4539 0
M  V30 2476 C 244.873 -4.32186 1.10142 0
M  V30 2477 C 245.574 -4.91441 3.11224 0
M  V30 2478 N 244.55 -4.88405 2.38666 0
M  V30 2479 H 248.352 -2.41309 1.67772 0
M  V30 2480 H 245.866 -1.27339 1.00789 0
M  V30 2481 H 247.863 -4.16868 -0.0519578 0
M  V30 2482 H 246.523 -3.17467 -0.681515 0
M  V30 2483 H 247.534 -4.33902 2.82754 0
M  V30 2484 H 244.211 -4.16735 0.252587 0
M  V30 2485 H 245.601 -5.29749 4.13298 0
M  V30 2486 N 248.321 -0.919034 -1.28029 0
M  V30 2487 C 249.269 -0.401753 -2.29104 0
M  V30 2488 C 250.263 0.509354 -1.61561 0
M  V30 2489 O 251.469 0.390014 -1.75724 0
M  V30 2490 H 247.844 -0.111331 -0.743713 0
M  V30 2491 H 249.815 -1.2672 -2.70156 0
M  V30 2492 C 248.564 0.338148 -3.46052 0
M  V30 2493 H 247.887 -0.353732 -3.98232 0
M  V30 2494 H 249.327 0.664653 -4.18758 0
M  V30 2495 C 247.786 1.54798 -2.99231 0
M  V30 2496 O 248.316 2.64696 -3.02157 0
M  V30 2497 N 246.522 1.3968 -2.54829 0
M  V30 2498 H 246.069 0.502698 -2.52647 0
M  V30 2499 H 246.027 2.20755 -2.23863 0
M  V30 2500 N 249.799 1.42003 -0.683588 0
M  V30 2501 C 250.762 2.29191 -0.0198243 0
M  V30 2502 C 251.762 1.43773 0.72013 0
M  V30 2503 O 252.952 1.65061 0.556815 0
M  V30 2504 C 250.084 3.26435 0.982487 0
M  V30 2505 H 251.277 2.8938 -0.787345 0
M  V30 2506 H 248.83 1.49789 -0.446418 0
M  V30 2507 H 249.565 2.71203 1.77819 0
M  V30 2508 H 249.35 3.89449 0.455182 0
M  V30 2509 H 250.84 3.918 1.44508 0
M  V30 2510 N 251.277 0.427512 1.51691 0
M  V30 2511 C 252.224 -0.388867 2.275 0
M  V30 2512 C 253.194 -1.02532 1.30677 0
M  V30 2513 O 254.379 -1.0461 1.59566 0
M  V30 2514 C 251.519 -1.48954 3.11298 0
M  V30 2515 C 250.632 -0.872194 4.23104 0
M  V30 2516 C 249.767 -1.94709 4.94228 0
M  V30 2517 C 248.806 -1.30766 5.97969 0
M  V30 2518 N 247.943 -2.32349 6.62539 0
M  V30 2519 H 252.783 0.263997 2.96828 0
M  V30 2520 H 250.32 0.142033 1.46413 0
M  V30 2521 H 252.278 -2.13887 3.58201 0
M  V30 2522 H 250.908 -2.11217 2.44105 0
M  V30 2523 H 249.96 -0.111419 3.80237 0
M  V30 2524 H 251.272 -0.365264 4.97461 0
M  V30 2525 H 250.426 -2.67327 5.44629 0
M  V30 2526 H 249.165 -2.48773 4.1948 0
M  V30 2527 H 248.17 -0.566902 5.4687 0
M  V30 2528 H 249.395 -0.774483 6.74669 0
M  V30 2529 H 247.341 -2.85511 5.90609 0
M  V30 2530 H 247.258 -1.8652 7.3263 0
M  V30 2531 H 248.526 -3.04481 7.17574 0
M  V30 2532 N 252.755 -1.56801 0.158532 0
M  V30 2533 C 253.983 -2.00859 -0.496303 0
M  V30 2534 C 254.398 -1.03871 -1.57659 0
M  V30 2535 O 253.755 -0.0375165 -1.82461 0
M  V30 2536 C 253.806 -3.4479 -1.08638 0
M  V30 2537 O 253.527 -4.38072 -0.0492322 0
M  V30 2538 C 255.028 -4.04185 -1.8207 0
M  V30 2539 H 252.248 -0.65864 -0.128199 0
M  V30 2540 H 254.792 -2.02885 0.256506 0
M  V30 2541 H 252.947 -3.43579 -1.78975 0
M  V30 2542 H 253.361 -5.2227 -0.483102 0
M  V30 2543 H 254.835 -5.06857 -2.18633 0
M  V30 2544 H 255.312 -3.45549 -2.71095 0
M  V30 2545 H 255.918 -4.0906 -1.16405 0
M  V30 2546 N 254.233 0.115231 -1.57178 0
M  V30 2547 C 255.18 1.14115 -2.00615 0
M  V30 2548 C 256.15 1.40939 -0.878941 0
M  V30 2549 O 257.335 1.52741 -1.14345 0
M  V30 2550 C 254.475 2.46156 -2.4187 0
M  V30 2551 C 253.588 2.26236 -3.68024 0
M  V30 2552 C 252.723 3.51534 -3.98243 0
M  V30 2553 C 251.762 3.26787 -5.17568 0
M  V30 2554 N 250.899 4.44298 -5.43639 0
M  V30 2555 H 255.739 0.763743 -2.88047 0
M  V30 2556 H 253.276 0.365615 -1.42484 0
M  V30 2557 H 255.234 3.23189 -2.63827 0
M  V30 2558 H 253.864 2.81783 -1.57475 0
M  V30 2559 H 252.916 1.40102 -3.5366 0
M  V30 2560 H 254.228 2.03929 -4.55208 0
M  V30 2561 H 253.382 4.36984 -4.20868 0
M  V30 2562 H 252.121 3.76876 -3.09541 0
M  V30 2563 H 251.126 2.39729 -4.94783 0
M  V30 2564 H 252.351 3.02812 -6.0785 0
M  V30 2565 H 250.297 4.69754 -4.57895 0
M  V30 2566 H 250.214 4.25109 -6.25154 0
M  V30 2567 H 251.482 5.3087 -5.70786 0
M  V30 2568 N 255.711 1.52812 0.385517 0
M  V30 2569 C 257.122 1.5993 0.963293 0
M  V30 2570 C 257.473 0.454302 1.90868 0
M  V30 2571 O 256.598 -0.422132 2.12243 0
M  V30 2572 C 257.193 2.89871 1.75387 0
M  V30 2573 C 255.752 2.99389 2.28129 0
M  V30 2574 C 254.899 2.55071 1.08783 0
M  V30 2575 H 257.85 1.5784 0.164948 0
M  V30 2576 H 257.871 2.76553 2.61341 0
M  V30 2577 H 257.383 3.73186 1.06554 0
M  V30 2578 H 255.484 2.20619 3.00263 0
M  V30 2579 H 255.597 4.04096 2.57377 0
M  V30 2580 H 253.961 2.09473 1.4489 0
M  V30 2581 H 254.744 3.40785 0.414807 0
M  V30 2582 N 257.189 -0.644168 1.43834 0
M  V30 2583 C 258.605 -0.960875 1.27434 0
M  V30 2584 C 258.805 -2.00499 0.200618 0
M  V30 2585 O 257.861 -2.49018 -0.417906 0
M  V30 2586 C 259.174 -1.43653 2.64167 0
M  V30 2587 C 260.722 -1.55271 2.71772 0
M  V30 2588 C 261.197 -2.06224 4.08944 0
M  V30 2589 N 262.688 -2.13513 4.11055 0
M  V30 2590 C 263.423 -2.54081 5.14033 0
M  V30 2591 N 262.919 -2.9388 6.27381 0
M  V30 2592 N 264.712 -2.54101 5.01387 0
M  V30 2593 H 256.863 0.0465779 2.12349 0
M  V30 2594 H 259.126 -0.0417638 0.94708 0
M  V30 2595 H 258.832 -0.743706 3.43747 0
M  V30 2596 H 258.706 -2.40993 2.90176 0
M  V30 2597 H 261.093 -2.23653 1.92519 0
M  V30 2598 H 261.174 -0.563395 2.49519 0
M  V30 2599 H 260.818 -1.38441 4.88668 0
M  V30 2600 H 260.748 -3.06003 4.28567 0
M  V30 2601 H 263.239 -1.85493 3.29242 0
M  V30 2602 H 263.552 -3.2361 7.01781 0
M  V30 2603 H 261.897 -2.91663 6.30839 0
M  V30 2604 H 265.088 -2.22391 4.11898 0
M  V30 2605 H 265.261 -2.85394 5.81768 0
M  V30 2606 N 258.668 -1.30515 -0.883378 0
M  V30 2607 C 259.578 -1.18959 -2.02203 0
M  V30 2608 C 260.594 -0.109172 -1.73657 0
M  V30 2609 O 261.77 -0.324413 -1.9877 0
M  V30 2610 C 258.835 -0.883871 -3.35244 0
M  V30 2611 C 257.896 -2.04982 -3.77201 0
M  V30 2612 C 257.129 -1.75859 -5.03894 0
M  V30 2613 O 257.352 -0.687276 -5.66244 0
M  V30 2614 O 256.286 -2.61146 -5.42297 0
M  V30 2615 H 260.112 -2.14616 -2.1488 0
M  V30 2616 H 257.697 -1.10124 -1.0096 0
M  V30 2617 H 259.579 -0.728644 -4.15053 0
M  V30 2618 H 258.254 0.0427798 -3.23672 0
M  V30 2619 H 257.161 -2.26038 -2.9809 0
M  V30 2620 H 258.494 -2.95825 -3.93381 0
M  V30 2621 N 260.146 1.09593 -1.13257 0
M  V30 2622 C 261.056 2.19739 -0.821691 0
M  V30 2623 C 262.072 1.72926 0.19302 0
M  V30 2624 O 263.248 2.01385 0.0244895 0
M  V30 2625 C 260.313 3.45482 -0.290333 0
M  V30 2626 C 259.374 4.06985 -1.36607 0
M  V30 2627 C 258.607 5.26726 -0.859975 0
M  V30 2628 O 258.83 5.69594 0.303082 0
M  V30 2629 O 257.764 5.7931 -1.63351 0
M  V30 2630 H 261.59 2.48781 -1.74189 0
M  V30 2631 H 259.175 1.18496 -0.909894 0
M  V30 2632 H 261.057 4.214 0.000674022 0
M  V30 2633 H 259.732 3.18047 0.602306 0
M  V30 2634 H 258.639 3.32712 -1.71037 0
M  V30 2635 H 259.972 4.38643 -2.23279 0
M  V30 2636 N 261.624 0.925811 1.2754 0
M  V30 2637 C 262.556 0.380753 2.26015 0
M  V30 2638 C 263.569 -0.487485 1.5533 0
M  V30 2639 O 264.758 -0.300413 1.75954 0
M  V30 2640 C 261.858 -0.473259 3.35579 0
M  V30 2641 C 261.031 0.375249 4.35787 0
M  V30 2642 C 260.09 -0.415809 5.24555 0
M  V30 2643 O 259.116 0.175834 5.68928 0
M  V30 2644 N 260.318 -1.71607 5.54555 0
M  V30 2645 H 263.083 1.22725 2.73421 0
M  V30 2646 H 260.644 0.793037 1.41147 0
M  V30 2647 H 262.636 -1.00949 3.91907 0
M  V30 2648 H 261.206 -1.2205 2.87789 0
M  V30 2649 H 260.426 1.09279 3.7875 0
M  V30 2650 H 261.714 0.955399 4.99749 0
M  V30 2651 H 261.112 -2.2191 5.20358 0
M  V30 2652 H 259.669 -2.19887 6.1359 0
M  V30 2653 N 263.102 -1.41638 0.69111 0
M  V30 2654 C 264.332 -2.0533 0.228758 0
M  V30 2655 C 264.74 -1.52089 -1.12541 0
M  V30 2656 O 264.083 -0.662145 -1.71351 0
M  V30 2657 C 264.145 -3.59349 0.10407 0
M  V30 2658 C 263.809 -4.35362 1.38956 0
M  V30 2659 C 264.806 -4.64942 2.32648 0
M  V30 2660 C 262.491 -4.74714 1.64169 0
M  V30 2661 C 264.485 -5.32828 3.49818 0
M  V30 2662 C 262.172 -5.42338 2.81625 0
M  V30 2663 C 263.17 -5.71322 3.74273 0
M  V30 2664 O 262.858 -6.37554 4.89673 0
M  V30 2665 H 262.59 -0.667796 0.104997 0
M  V30 2666 H 265.144 -1.82477 0.942938 0
M  V30 2667 H 263.374 -3.80924 -0.665839 0
M  V30 2668 H 265.063 -4.04633 -0.320519 0
M  V30 2669 H 265.829 -4.35025 2.14425 0
M  V30 2670 H 261.708 -4.51538 0.929202 0
M  V30 2671 H 265.252 -5.55368 4.22152 0
M  V30 2672 H 261.149 -5.71673 2.99768 0
M  V30 2673 H 261.917 -6.56049 4.8943 0
M  V30 2674 N 264.58 -0.43555 -1.51462 0
M  V30 2675 C 265.528 0.391205 -2.29287 0
M  V30 2676 C 266.522 1.02247 -1.35062 0
M  V30 2677 O 267.728 0.957646 -1.52411 0
M  V30 2678 H 264.103 0.144968 -0.737895 0
M  V30 2679 H 266.074 -0.286051 -2.97026 0
M  V30 2680 C 264.823 1.48096 -3.14583 0
M  V30 2681 H 264.146 1.00457 -3.86973 0
M  V30 2682 H 265.586 2.03273 -3.72097 0
M  V30 2683 C 264.045 2.46321 -2.29843 0
M  V30 2684 O 264.575 3.50815 -1.95682 0
M  V30 2685 N 262.781 2.17166 -1.931 0
M  V30 2686 H 262.328 1.32218 -2.21079 0
M  V30 2687 H 262.286 2.83127 -1.36698 0
M  V30 2688 N 266.058 1.56714 -0.166846 0
M  V30 2689 C 267.283 2.01557 0.488833 0
M  V30 2690 C 267.708 1.0463 1.56314 0
M  V30 2691 O 267.066 0.0251304 1.81283 0
M  V30 2692 C 267.114 3.4503 1.04818 0
M  V30 2693 O 266.218 3.51163 2.16236 0
M  V30 2694 H 265.559 0.653516 0.117526 0
M  V30 2695 H 268.089 2.02818 -0.269421 0
M  V30 2696 H 268.099 3.84243 1.37191 0
M  V30 2697 H 266.774 4.15077 0.261572 0
M  V30 2698 H 265.351 3.23807 1.84942 0
M  V30 2699 N 267.536 -0.106894 1.57237 0
M  V30 2700 C 268.764 -0.826389 1.8968 0
M  V30 2701 C 269.179 -1.72856 0.759353 0
M  V30 2702 O 268.536 -1.80503 -0.269263 0
M  V30 2703 C 268.587 -1.64967 3.21665 0
M  V30 2704 O 268.308 -0.783804 4.31031 0
M  V30 2705 C 269.809 -2.47326 3.67892 0
M  V30 2706 H 267.029 -0.236927 0.627779 0
M  V30 2707 H 269.573 -0.0876593 2.04312 0
M  V30 2708 H 267.728 -2.34103 3.08666 0
M  V30 2709 H 268.142 -1.35284 5.06753 0
M  V30 2710 H 269.616 -3.00604 4.6297 0
M  V30 2711 H 270.093 -3.25247 2.95146 0
M  V30 2712 H 270.699 -1.83411 3.83719 0
M  V30 2713 N 269.014 -1.53014 -0.377408 0
M  V30 2714 C 270.244 -1.72265 -1.14054 0
M  V30 2715 C 270.652 -0.44601 -1.83868 0
M  V30 2716 O 269.995 0.590095 -1.73964 0
M  V30 2717 C 270.057 -2.82492 -2.22348 0
M  V30 2718 C 269.721 -4.23233 -1.72402 0
M  V30 2719 C 270.718 -5.05992 -1.19448 0
M  V30 2720 C 268.403 -4.696 -1.78273 0
M  V30 2721 C 270.397 -6.33203 -0.730268 0
M  V30 2722 C 268.084 -5.96792 -1.31464 0
M  V30 2723 C 269.082 -6.78424 -0.789297 0
M  V30 2724 O 268.77 -8.0323 -0.328077 0
M  V30 2725 H 268.502 -0.579873 -0.347453 0
M  V30 2726 H 271.056 -2.00502 -0.445882 0
M  V30 2727 H 269.286 -2.49702 -2.95272 0
M  V30 2728 H 270.975 -2.90034 -2.83963 0
M  V30 2729 H 271.741 -4.71349 -1.14259 0
M  V30 2730 H 267.62 -4.06142 -2.18106 0
M  V30 2731 H 271.164 -6.96868 -0.319542 0
M  V30 2732 H 267.061 -6.30937 -1.36342 0
M  V30 2733 H 267.829 -8.1727 -0.448493 0
M  V30 2734 N 270.492 0.636531 -1.44174 0
M  V30 2735 C 271.908 0.954104 -1.27941 0
M  V30 2736 C 272.108 2.0039 -0.211248 0
M  V30 2737 O 271.164 2.49236 0.404695 0
M  V30 2738 C 272.477 1.4225 -2.64925 0
M  V30 2739 C 274.025 1.53827 -2.72592 0
M  V30 2740 C 274.5 2.04053 -4.10032 0
M  V30 2741 N 275.991 2.11331 -4.12182 0
M  V30 2742 C 276.726 2.51352 -5.15374 0
M  V30 2743 N 276.222 2.90549 -6.2893 0
M  V30 2744 N 278.015 2.51438 -5.02728 0
M  V30 2745 H 270.166 -0.0578386 -2.12321 0
M  V30 2746 H 272.429 0.0367406 -0.947288 0
M  V30 2747 H 272.135 0.725466 -3.44136 0
M  V30 2748 H 272.009 2.39451 -2.9145 0
M  V30 2749 H 274.396 2.22628 -1.93702 0
M  V30 2750 H 274.477 0.550154 -2.49814 0
M  V30 2751 H 274.121 1.35848 -4.89395 0
M  V30 2752 H 274.051 3.03726 -4.30184 0
M  V30 2753 H 276.542 1.83745 -3.30222 0
M  V30 2754 H 276.855 3.19884 -7.03487 0
M  V30 2755 H 275.2 2.88313 -6.32377 0
M  V30 2756 H 278.391 2.20203 -4.13072 0
M  V30 2757 H 278.564 2.82304 -5.83274 0
M  V30 2758 N 271.97 1.30982 0.876444 0
M  V30 2759 C 273.216 1.20474 1.63138 0
M  V30 2760 C 273.549 -0.238096 1.92735 0
M  V30 2761 O 272.824 -1.1692 1.55435 0
M  V30 2762 C 273.107 2.04244 2.96574 0
M  V30 2763 C 272.96 3.56793 2.73896 0
M  V30 2764 C 274.279 1.88684 3.97601 0
M  V30 2765 H 271.398 0.439001 0.591985 0
M  V30 2766 H 274.04 1.60704 1.01361 0
M  V30 2767 H 272.19 1.70063 3.493 0
M  V30 2768 H 273.862 4.01077 2.27892 0
M  V30 2769 H 272.105 3.80548 2.08245 0
M  V30 2770 H 272.776 4.10706 3.68815 0
M  V30 2771 H 275.252 2.18584 3.54062 0
M  V30 2772 H 274.128 2.4961 4.88862 0
M  V30 2773 H 274.389 0.848343 4.33884 0
M  V30 2774 N 273.449 -1.08991 1.13837 0
M  V30 2775 C 274.695 -1.81526 0.90422 0
M  V30 2776 C 275.028 -1.85706 -0.568066 0
M  V30 2777 O 274.303 -1.32855 -1.42056 0
M  V30 2778 C 274.586 -3.27447 1.49835 0
M  V30 2779 C 274.439 -3.31512 3.04006 0
M  V30 2780 C 275.758 -4.24256 1.17025 0
M  V30 2781 H 272.877 -0.659029 0.329923 0
M  V30 2782 H 275.519 -1.27644 1.40737 0
M  V30 2783 H 273.669 -3.73462 1.07044 0
M  V30 2784 H 275.341 -2.93867 3.55584 0
M  V30 2785 H 273.584 -2.70963 3.38765 0
M  V30 2786 H 274.255 -4.34329 3.40679 0
M  V30 2787 H 276.731 -3.86549 1.54009 0
M  V30 2788 H 275.607 -5.24684 1.61237 0
M  V30 2789 H 275.868 -4.42019 0.0846274 0
M  V30 2790 N 274.927 -0.932562 -1.27047 0
M  V30 2791 C 276.152 -0.591474 -1.98787 0
M  V30 2792 C 276.577 0.824601 -1.69062 0
M  V30 2793 O 275.935 1.5541 -0.933677 0
M  V30 2794 C 275.983 -0.829808 -3.50922 0
M  V30 2795 O 275.087 0.102266 -4.12273 0
M  V30 2796 H 274.428 -0.227185 -0.623926 0
M  V30 2797 H 276.958 -1.25314 -1.61733 0
M  V30 2798 H 276.968 -0.747292 -4.01098 0
M  V30 2799 H 275.643 -1.86201 -3.7189 0
M  V30 2800 H 274.22 -0.0305761 -3.72887 0
M  V30 2801 N 276.405 1.4127 -0.698611 0
M  V30 2802 C 277.651 2.01478 -0.231207 0
M  V30 2803 C 277.984 1.55215 1.16713 0
M  V30 2804 O 277.259 0.764672 1.78838 0
M  V30 2805 C 277.542 3.58912 -0.292281 0
M  V30 2806 C 277.395 4.15293 -1.72778 0
M  V30 2807 C 278.714 4.38736 0.346194 0
M  V30 2808 H 275.833 0.732025 -0.0854878 0
M  V30 2809 H 278.475 1.67977 -0.887906 0
M  V30 2810 H 276.625 3.87582 0.26686 0
M  V30 2811 H 278.297 3.97486 -2.341 0
M  V30 2812 H 276.54 3.7022 -2.26096 0
M  V30 2813 H 277.211 5.24452 -1.72202 0
M  V30 2814 H 279.687 4.15897 -0.130035 0
M  V30 2815 H 278.563 5.48221 0.272932 0
M  V30 2816 H 278.824 4.18425 1.42734 0
M  V30 2817 N 277.883 0.443576 1.51229 0
M  V30 2818 C 278.813 -0.355142 2.30783 0
M  V30 2819 C 279.794 -1.0154 1.36468 0
M  V30 2820 O 280.979 -1.01785 1.65389 0
M  V30 2821 C 278.109 -1.45312 3.15439 0
M  V30 2822 C 277.063 -0.916002 4.18083 0
M  V30 2823 C 276.389 -2.1102 4.91299 0
M  V30 2824 C 277.689 0.0538602 5.22272 0
M  V30 2825 H 279.383 0.308767 2.97804 0
M  V30 2826 H 276.929 0.149937 1.43217 0
M  V30 2827 H 278.882 -2.01914 3.69876 0
M  V30 2828 H 277.606 -2.14541 2.46252 0
M  V30 2829 H 276.265 -0.372145 3.64706 0
M  V30 2830 H 275.913 -2.78882 4.18609 0
M  V30 2831 H 275.613 -1.75717 5.60712 0
M  V30 2832 H 277.137 -2.68164 5.48562 0
M  V30 2833 H 278.551 -0.422069 5.71744 0
M  V30 2834 H 276.948 0.319776 5.99247 0
M  V30 2835 H 278.018 0.98858 4.74716 0
M  V30 2836 N 279.361 -1.56624 0.175154 0
M  V30 2837 C 280.589 -2.01374 -0.474971 0
M  V30 2838 C 281.004 -1.05537 -1.56548 0
M  V30 2839 O 280.361 -0.0568668 -1.82411 0
M  V30 2840 C 280.412 -3.45923 -1.04975 0
M  V30 2841 O 280.133 -4.381 -0.00276605 0
M  V30 2842 C 281.634 -4.06093 -1.77773 0
M  V30 2843 H 278.854 -0.659962 -0.121206 0
M  V30 2844 H 281.398 -2.02601 0.27801 0
M  V30 2845 H 279.553 -3.45458 -1.75321 0
M  V30 2846 H 279.967 -5.22753 -0.427681 0
M  V30 2847 H 281.441 -5.09147 -2.13245 0
M  V30 2848 H 281.918 -3.48405 -2.67414 0
M  V30 2849 H 282.524 -4.10272 -1.12059 0
M  V30 2850 N 280.839 0.0985539 -1.57292 0
M  V30 2851 C 282.085 0.803867 -1.86188 0
M  V30 2852 C 282.418 1.78549 -0.763794 0
M  V30 2853 O 281.693 1.93153 0.22855 0
M  V30 2854 C 281.976 1.53568 -3.25713 0
M  V30 2855 C 281.829 0.572277 -4.46145 0
M  V30 2856 C 283.148 2.48708 -3.63087 0
M  V30 2857 H 280.267 0.290781 -0.677211 0
M  V30 2858 H 282.909 0.0675783 -1.8988 0
M  V30 2859 H 281.059 2.16332 -3.22696 0
M  V30 2860 H 282.731 -0.0480894 -4.61275 0
M  V30 2861 H 280.974 -0.114618 -4.33649 0
M  V30 2862 H 281.645 1.12139 -5.40489 0
M  V30 2863 H 284.121 1.96039 -3.67026 0
M  V30 2864 H 282.997 2.96932 -4.61652 0
M  V30 2865 H 283.258 3.32309 -2.91588 0
M  V30 2866 N 282.317 1.53212 0.369288 0
M  V30 2867 C 283.247 1.82365 1.45826 0
M  V30 2868 C 284.228 0.676907 1.56051 0
M  V30 2869 O 285.413 0.926401 1.70679 0
M  V30 2870 C 282.543 2.01023 2.83208 0
M  V30 2871 C 281.497 3.1678 2.8781 0
M  V30 2872 C 280.823 3.20724 4.27832 0
M  V30 2873 C 282.123 4.55447 2.55667 0
M  V30 2874 H 283.817 2.73559 1.21678 0
M  V30 2875 H 281.363 1.3163 0.583911 0
M  V30 2876 H 283.316 2.20001 3.59413 0
M  V30 2877 H 282.04 1.06536 3.08736 0
M  V30 2878 H 280.699 2.97616 2.14056 0
M  V30 2879 H 280.347 2.23882 4.50429 0
M  V30 2880 H 280.047 3.98496 4.31827 0
M  V30 2881 H 281.571 3.41881 5.05915 0
M  V30 2882 H 282.985 4.74611 3.21586 0
M  V30 2883 H 281.382 5.35432 2.70984 0
M  V30 2884 H 282.452 4.60812 1.5093 0
M  V30 2885 N 283.795 -0.628877 1.44509 0
M  V30 2886 C 284.745 -1.7345 1.47983 0
M  V30 2887 C 285.729 -1.5715 0.345373 0
M  V30 2888 O 286.921 -1.66848 0.590829 0
M  V30 2889 C 284.05 -3.12143 1.42904 0
M  V30 2890 C 283.136 -3.33906 2.61472 0
M  V30 2891 N 283.527 -3.26024 3.86706 0
M  V30 2892 C 281.825 -3.64709 2.56716 0
M  V30 2893 C 282.526 -3.48536 4.65722 0
M  V30 2894 N 281.502 -3.71517 3.96832 0
M  V30 2895 H 285.304 -1.65818 2.42655 0
M  V30 2896 H 282.818 -0.831419 1.39503 0
M  V30 2897 H 284.815 -3.91433 1.43476 0
M  V30 2898 H 283.475 -3.2094 0.492717 0
M  V30 2899 H 284.486 -3.04893 4.18641 0
M  V30 2900 H 281.163 -3.80473 1.71891 0
M  V30 2901 H 282.553 -3.48016 5.74747 0
M  V30 2902 N 285.273 -1.31445 -0.869486 0
M  V30 2903 C 286.205 -1.14955 -1.98287 0
M  V30 2904 C 287.218 -0.0885037 -1.62559 0
M  V30 2905 O 288.407 -0.336044 -1.75308 0
M  V30 2906 C 285.507 -0.734255 -3.3085 0
M  V30 2907 C 284.68 -1.88042 -3.94917 0
M  V30 2908 C 283.739 -1.4511 -5.05796 0
M  V30 2909 O 282.765 -2.16082 -5.2659 0
M  V30 2910 N 283.967 -0.338763 -5.79511 0
M  V30 2911 H 286.732 -2.10856 -2.12979 0
M  V30 2912 H 284.293 -1.23786 -1.04349 0
M  V30 2913 H 286.285 -0.42975 -4.02412 0
M  V30 2914 H 284.855 0.133158 -3.12316 0
M  V30 2915 H 284.075 -2.35222 -3.1633 0
M  V30 2916 H 285.363 -2.6481 -4.34457 0
M  V30 2917 H 284.761 0.252274 -5.65137 0
M  V30 2918 H 283.318 -0.0937925 -6.51733 0
M  V30 2919 N 286.751 1.08385 -1.14413 0
M  V30 2920 C 288.028 1.77429 -0.823297 0
M  V30 2921 C 288.408 1.9974 0.683163 0
M  V30 2922 O 287.756 1.60739 1.62405 0
M  V30 2923 C 287.966 3.09004 -1.62227 0
M  V30 2924 C 289.314 3.83532 -1.82177 0
M  V30 2925 O 290.338 3.18786 -1.58915 0
M  V30 2926 O 289.197 4.99792 -2.21067 0
M  V30 2927 H 286.291 0.769999 -0.301712 0
M  V30 2928 H 288.837 1.14846 -1.24934 0
M  V30 2929 H 287.609 2.88316 -2.64555 0
M  V30 2930 H 287.232 3.79316 -1.19187 0
M  V30 2931 N 288.23 0.939286 1.26551 0
M  V30 2932 C 289.476 0.596234 1.94465 0
M  V30 2933 C 289.831 -0.855013 1.72358 0
M  V30 2934 O 289.124 -1.6034 1.04889 0
M  V30 2935 C 289.318 0.872106 3.46596 0
M  V30 2936 C 289.147 2.34862 3.83497 0
M  V30 2937 C 287.917 3.00344 4.06352 0
M  V30 2938 C 290.115 3.32697 3.92195 0
M  V30 2939 N 288.097 4.38027 4.30123 0
M  V30 2940 C 289.468 4.55631 4.20476 0
M  V30 2941 C 291.523 3.27747 3.74815 0
M  V30 2942 C 290.226 5.74233 4.33185 0
M  V30 2943 C 292.252 4.45672 3.88755 0
M  V30 2944 C 291.614 5.67388 4.17433 0
M  V30 2945 H 287.713 0.268515 0.734455 0
M  V30 2946 H 290.297 1.2083 1.5267 0
M  V30 2947 H 288.468 0.289102 3.87323 0
M  V30 2948 H 290.2 0.490513 4.01716 0
M  V30 2949 H 286.955 2.50969 4.01636 0
M  V30 2950 H 287.379 5.09288 4.46044 0
M  V30 2951 H 292.021 2.34703 3.51673 0
M  V30 2952 H 289.739 6.67731 4.55149 0
M  V30 2953 H 293.325 4.43372 3.76713 0
M  V30 2954 H 292.205 6.57115 4.27983 0
M  V30 2955 N 289.708 -1.40897 0.706093 0
M  V30 2956 C 290.638 -2.33418 0.0620085 0
M  V30 2957 C 291.619 -1.52385 -0.755827 0
M  V30 2958 O 292.804 -1.80886 -0.706674 0
M  V30 2959 C 289.934 -3.36293 -0.867445 0
M  V30 2960 C 288.888 -4.27716 -0.155932 0
M  V30 2961 C 288.214 -5.2105 -1.20046 0
M  V30 2962 C 289.514 -5.12944 0.984149 0
M  V30 2963 H 291.208 -2.87527 0.83477 0
M  V30 2964 H 288.754 -1.38249 0.402875 0
M  V30 2965 H 290.707 -3.99949 -1.32735 0
M  V30 2966 H 289.431 -2.80556 -1.67199 0
M  V30 2967 H 288.09 -3.65498 0.284047 0
M  V30 2968 H 287.738 -4.61624 -1.99781 0
M  V30 2969 H 287.438 -5.83056 -0.729328 0
M  V30 2970 H 288.962 -5.87584 -1.66066 0
M  V30 2971 H 290.376 -5.70109 0.604048 0
M  V30 2972 H 288.773 -5.83945 1.38304 0
M  V30 2973 H 289.843 -4.49485 1.81911 0
M  V30 2974 N 291.186 -0.45159 -1.50991 0
M  V30 2975 C 292.134 0.366864 -2.29689 0
M  V30 2976 C 293.128 1.00809 -1.36139 0
M  V30 2977 O 294.334 0.941427 -1.53418 0
M  V30 2978 H 290.709 0.137133 -0.739391 0
M  V30 2979 H 292.68 -0.317538 -2.96706 0
M  V30 2980 C 291.429 1.44751 -3.16137 0
M  V30 2981 H 290.752 0.963473 -3.88017 0
M  V30 2982 H 292.192 1.99315 -3.74232 0
M  V30 2983 C 290.651 2.43869 -2.32442 0
M  V30 2984 O 291.181 3.4872 -1.99392 0
M  V30 2985 N 289.387 2.15105 -1.95392 0
M  V30 2986 H 288.934 1.29866 -2.22469 0
M  V30 2987 H 288.892 2.81661 -1.39693 0
M  V30 2988 N 292.664 1.56529 -0.183458 0
M  V30 2989 C 293.912 1.96855 0.457452 0
M  V30 2990 C 294.233 1.07104 1.62953 0
M  V30 2991 O 293.503 0.139887 1.954 0
M  V30 2992 H 292.083 0.72693 0.171992 0
M  V30 2993 H 294.745 1.93056 -0.267476 0
M  V30 2994 H 293.841 3.01423 0.809368 0
M  V30 2995 N 294.142 -0.090211 1.57342 0
M  V30 2996 C 295.089 -1.10909 2.02405 0
M  V30 2997 C 296.059 -1.39523 0.901252 0
M  V30 2998 O 297.244 -1.50903 1.1676 0
M  V30 2999 C 294.384 -2.42277 2.45755 0
M  V30 3000 C 293.497 -2.20352 3.71576 0
M  V30 3001 C 292.632 -3.45154 4.03785 0
M  V30 3002 C 291.671 -3.18512 5.22701 0
M  V30 3003 N 290.808 -4.35593 5.50639 0
M  V30 3004 H 295.648 -0.71782 2.89225 0
M  V30 3005 H 293.185 -0.342901 1.43048 0
M  V30 3006 H 295.143 -3.18951 2.68935 0
M  V30 3007 H 293.773 -2.79242 1.61938 0
M  V30 3008 H 292.825 -1.34458 3.55844 0
M  V30 3009 H 294.137 -1.96661 4.58395 0
M  V30 3010 H 293.291 -4.30233 4.27767 0
M  V30 3011 H 292.03 -3.71904 3.15498 0
M  V30 3012 H 291.035 -2.31827 4.98534 0
M  V30 3013 H 292.26 -2.93103 6.12591 0
M  V30 3014 H 290.206 -4.6241 4.6531 0
M  V30 3015 H 290.123 -4.1511 6.31838 0
M  V30 3016 H 291.391 -5.21723 5.7916 0
M  V30 3017 N 295.62 -1.53406 -0.361157 0
M  V30 3018 C 296.53 -1.83122 -1.4664 0
M  V30 3019 C 297.546 -0.719943 -1.58407 0
M  V30 3020 O 298.722 -1.01046 -1.74218 0
M  V30 3021 C 295.787 -2.01891 -2.81853 0
M  V30 3022 C 294.848 -3.25784 -2.79577 0
M  V30 3023 C 294.081 -3.43648 -4.0834 0
M  V30 3024 O 294.304 -2.65714 -5.0473 0
M  V30 3025 O 293.238 -4.37018 -4.13883 0
M  V30 3026 H 297.064 -2.7703 -1.24451 0
M  V30 3027 H 294.649 -1.38841 -0.551678 0
M  V30 3028 H 296.531 -2.15782 -3.61962 0
M  V30 3029 H 295.206 -1.11173 -3.0401 0
M  V30 3030 H 294.113 -3.17312 -1.98151 0
M  V30 3031 H 295.446 -4.16439 -2.62373 0
M  V30 3032 N 297.098 0.621204 -1.44841 0
M  V30 3033 C 298.328 1.40548 -1.51426 0
M  V30 3034 C 298.736 1.88673 -0.141083 0
M  V30 3035 O 298.079 1.62053 0.865128 0
M  V30 3036 C 298.141 2.65325 -2.42576 0
M  V30 3037 C 297.805 2.3893 -3.89566 0
M  V30 3038 C 298.802 2.00138 -4.79834 0
M  V30 3039 C 296.487 2.52263 -4.3436 0
M  V30 3040 C 298.481 1.75021 -6.129 0
M  V30 3041 C 296.168 2.2676 -5.67471 0
M  V30 3042 C 297.166 1.88199 -6.56559 0
M  V30 3043 O 296.854 1.62986 -7.87204 0
M  V30 3044 H 296.586 0.437122 -0.515655 0
M  V30 3045 H 299.14 0.765987 -1.90583 0
M  V30 3046 H 297.37 3.31947 -1.98364 0
M  V30 3047 H 299.059 3.27347 -2.39998 0
M  V30 3048 H 299.825 1.89386 -4.46495 0
M  V30 3049 H 295.704 2.81246 -3.65269 0
M  V30 3050 H 299.248 1.44848 -6.82396 0
M  V30 3051 H 295.145 2.37125 -6.00368 0
M  V30 3052 H 295.913 1.7715 -7.991 0
M  V30 3053 N 298.576 1.31904 0.862503 0
M  V30 3054 C 299.523 1.20182 1.9704 0
M  V30 3055 C 300.493 0.0858247 1.65878 0
M  V30 3056 O 301.678 0.26 1.8902 0
M  V30 3057 C 298.818 0.922797 3.32533 0
M  V30 3058 C 297.931 2.12284 3.76244 0
M  V30 3059 C 297.066 1.77996 5.00491 0
M  V30 3060 C 296.105 2.94366 5.36671 0
M  V30 3061 N 295.242 2.60223 6.52095 0
M  V30 3062 H 300.082 2.14951 2.06398 0
M  V30 3063 H 297.619 1.06917 1.01031 0
M  V30 3064 H 299.577 0.741548 4.10557 0
M  V30 3065 H 298.207 0.0119227 3.22798 0
M  V30 3066 H 297.259 2.41461 2.9394 0
M  V30 3067 H 298.571 2.99357 3.98982 0
M  V30 3068 H 297.725 1.56377 5.862 0
M  V30 3069 H 296.464 0.881252 4.79672 0
M  V30 3070 H 295.469 3.16625 4.49476 0
M  V30 3071 H 296.694 3.84957 5.59451 0
M  V30 3072 H 294.64 1.72884 6.32809 0
M  V30 3073 H 294.557 3.40827 6.74814 0
M  V30 3074 H 295.825 2.42016 7.40978 0
M  V30 3075 N 300.054 -1.07777 1.14986 0
M  V30 3076 C 301.294 -1.81888 0.932527 0
M  V30 3077 C 301.658 -1.84509 -0.531064 0
M  V30 3078 O 302.859 -2.54448 -0.866577 0
M  V30 3079 C 301.13 -3.23244 1.52473 0
M  V30 3080 S 302.689 -4.14154 1.44989 0
M  V30 3081 H 299.507 -0.626752 0.335712 0
M  V30 3082 H 302.109 -1.29503 1.46455 0
M  V30 3083 H 300.813 -3.18922 2.58296 0
M  V30 3084 H 300.344 -3.80704 0.991381 0
M  V30 3085 H 302.359 -4.94247 0.439799 0
M  V30 3086 N 301.532 -0.945985 -1.26051 0
M  V30 3087 C 302.479 -0.45809 -2.26208 0
M  V30 3088 C 303.449 0.484816 -1.58867 0
M  V30 3089 O 304.634 0.399969 -1.86561 0
M  V30 3090 C 301.774 0.266131 -3.44072 0
M  V30 3091 C 300.887 -0.713005 -4.26075 0
M  V30 3092 C 300.022 0.0329013 -5.3119 0
M  V30 3093 C 299.061 -0.93774 -6.04874 0
M  V30 3094 N 298.198 -0.223274 -7.01745 0
M  V30 3095 H 303.038 -1.3171 -2.67313 0
M  V30 3096 H 300.575 -0.66069 -1.31428 0
M  V30 3097 H 302.533 0.702514 -4.11243 0
M  V30 3098 H 301.163 1.08925 -3.03867 0
M  V30 3099 H 300.215 -1.26789 -3.58648 0
M  V30 3100 H 301.527 -1.45406 -4.77136 0
M  V30 3101 H 300.681 0.528335 -6.04395 0
M  V30 3102 H 299.42 0.806801 -4.8098 0
M  V30 3103 H 298.425 -1.44425 -5.30492 0
M  V30 3104 H 299.65 -1.71172 -6.57173 0
M  V30 3105 H 297.596 0.532046 -6.53839 0
M  V30 3106 H 297.513 -0.90357 -7.50581 0
M  V30 3107 H 298.781 0.250907 -7.79096 0
M  V30 3108 N 303.011 1.40521 -0.713556 0
M  V30 3109 C 304.257 2.01221 -0.252564 0
M  V30 3110 C 304.59 1.56444 1.1506 0
M  V30 3111 O 303.865 0.783597 1.78017 0
M  V30 3112 C 304.148 3.58582 -0.330332 0
M  V30 3113 C 304.001 4.13437 -1.77173 0
M  V30 3114 C 305.32 4.39079 0.299641 0
M  V30 3115 H 302.439 0.731077 -0.0932471 0
M  V30 3116 H 305.081 1.67026 -0.905673 0
M  V30 3117 H 303.231 3.87844 0.225737 0
M  V30 3118 H 304.903 3.9498 -2.38303 0
M  V30 3119 H 303.146 3.67801 -2.3001 0
M  V30 3120 H 303.817 5.22597 -1.77755 0
M  V30 3121 H 306.293 4.15735 -0.174139 0
M  V30 3122 H 305.169 5.4848 0.214771 0
M  V30 3123 H 305.43 4.19915 1.38288 0
M  V30 3124 N 304.489 0.459591 1.5075 0
M  V30 3125 C 305.714 -0.0996819 2.0716 0
M  V30 3126 C 306.139 -1.33761 1.32249 0
M  V30 3127 O 305.497 -1.77551 0.366786 0
M  V30 3128 C 305.545 -0.378226 3.58611 0
M  V30 3129 O 304.649 -1.46081 3.85661 0
M  V30 3130 H 303.99 0.00791392 0.663953 0
M  V30 3131 H 306.52 0.647329 1.9409 0
M  V30 3132 H 306.53 -0.622135 4.03229 0
M  V30 3133 H 305.205 0.526439 4.12555 0
M  V30 3134 H 303.782 -1.20511 3.5289 0
M  V30 3135 N 305.967 -1.56429 0.191757 0
M  V30 3136 C 306.915 -2.20273 -0.747174 0
M  V30 3137 C 307.909 -1.17288 -1.22229 0
M  V30 3138 O 309.115 -1.35441 -1.18557 0
M  V30 3139 H 305.49 -0.705885 -0.259289 0
M  V30 3140 H 307.461 -2.97826 -0.184963 0
M  V30 3141 C 306.21 -2.87356 -1.95759 0
M  V30 3142 H 305.533 -3.66341 -1.60106 0
M  V30 3143 H 306.973 -3.3547 -2.59299 0
M  V30 3144 C 305.432 -1.88213 -2.79423 0
M  V30 3145 O 305.962 -1.38033 -3.7724 0
M  V30 3146 N 304.168 -1.56516 -2.44849 0
M  V30 3147 H 303.715 -1.97516 -1.65364 0
M  V30 3148 H 303.673 -0.904369 -3.01112 0
M  V30 3149 N 307.445 0.0818655 -1.57387 0
M  V30 3150 C 308.392 1.09834 -2.0299 0
M  V30 3151 C 309.362 1.39043 -0.908639 0
M  V30 3152 O 310.547 1.50282 -1.17559 0
M  V30 3153 C 307.687 2.40971 -2.47037 0
M  V30 3154 C 306.8 2.18379 -3.7274 0
M  V30 3155 C 305.935 3.43008 -4.0561 0
M  V30 3156 C 304.974 3.15736 -5.24383 0
M  V30 3157 N 304.111 4.32667 -5.52941 0
M  V30 3158 H 308.951 0.702472 -2.89602 0
M  V30 3159 H 306.488 0.33531 -1.43227 0
M  V30 3160 H 308.446 3.1752 -2.70623 0
M  V30 3161 H 307.076 2.78379 -1.63417 0
M  V30 3162 H 306.128 1.32569 -3.56552 0
M  V30 3163 H 307.44 1.94227 -4.59431 0
M  V30 3164 H 306.594 4.27958 -4.30043 0
M  V30 3165 H 305.333 3.70225 -3.17466 0
M  V30 3166 H 304.338 2.2918 -4.99757 0
M  V30 3167 H 305.563 2.8985 -6.14136 0
M  V30 3168 H 303.509 4.59935 -4.67756 0
M  V30 3169 H 303.426 4.11753 -6.34031 0
M  V30 3170 H 304.694 5.18644 -5.81918 0
M  V30 3171 N 308.923 1.53595 0.353017 0
M  V30 3172 C 309.886 1.80232 1.41594 0
M  V30 3173 C 310.886 0.673081 1.46035 0
M  V30 3174 O 312.076 0.941335 1.46576 0
M  V30 3175 C 309.208 1.93578 2.80607 0
M  V30 3176 H 310.401 2.75174 1.19244 0
M  V30 3177 H 307.954 1.44864 0.586872 0
M  V30 3178 H 308.689 1.00746 3.08254 0
M  V30 3179 H 308.474 2.75724 2.78781 0
M  V30 3180 H 309.964 2.15735 3.57558 0
M  V30 3181 N 310.401 -0.613514 1.45168 0
M  V30 3182 C 311.331 -1.7354 1.56225 0
M  V30 3183 C 312.312 -1.64981 0.41414 0
M  V30 3184 O 313.497 -1.83472 0.636526 0
M  V30 3185 C 310.627 -3.12128 1.52295 0
M  V30 3186 C 309.581 -3.35491 2.65762 0
M  V30 3187 C 308.907 -4.74291 2.46885 0
M  V30 3188 C 310.207 -3.26325 4.0781 0
M  V30 3189 H 311.901 -1.64543 2.50132 0
M  V30 3190 H 309.447 -0.790185 1.20383 0
M  V30 3191 H 311.4 -3.90404 1.58628 0
M  V30 3192 H 310.124 -3.2195 0.549139 0
M  V30 3193 H 308.783 -2.59603 2.58847 0
M  V30 3194 H 308.431 -4.80839 1.47657 0
M  V30 3195 H 308.131 -4.9088 3.22972 0
M  V30 3196 H 309.655 -5.54775 2.55063 0
M  V30 3197 H 311.069 -3.94483 4.16 0
M  V30 3198 H 309.466 -3.54445 4.8424 0
M  V30 3199 H 310.536 -2.23855 4.30136 0
M  V30 3200 N 311.879 -1.3236 -0.855495 0
M  V30 3201 C 313.29 -1.2056 -1.42556 0
M  V30 3202 C 313.641 0.182209 -1.95352 0
M  V30 3203 O 312.766 1.08088 -1.87472 0
M  V30 3204 C 313.361 -2.1826 -2.59129 0
M  V30 3205 C 311.92 -2.10351 -3.12137 0
M  V30 3206 C 311.067 -2.06674 -1.84882 0
M  V30 3207 H 314.018 -1.442 -0.662727 0
M  V30 3208 H 314.039 -1.78064 -3.36264 0
M  V30 3209 H 313.551 -3.19257 -2.20673 0
M  V30 3210 H 311.652 -1.12599 -3.55179 0
M  V30 3211 H 311.765 -3.00135 -3.73438 0
M  V30 3212 H 310.129 -1.51901 -2.04446 0
M  V30 3213 H 310.912 -3.09451 -1.48643 0
M  V30 3214 N 313.357 1.07166 -1.15556 0
M  V30 3215 C 314.32 2.12589 -0.856644 0
M  V30 3216 C 315.32 1.6015 0.14444 0
M  V30 3217 O 316.51 1.7399 -0.0854163 0
M  V30 3218 C 313.642 3.39753 -0.279405 0
M  V30 3219 H 314.835 2.40539 -1.79112 0
M  V30 3220 H 312.388 1.23086 -0.963298 0
M  V30 3221 H 313.123 3.17447 0.663174 0
M  V30 3222 H 312.908 3.79117 -1.00063 0
M  V30 3223 H 314.398 4.17507 -0.0879113 0
M  V30 3224 N 314.835 0.952656 1.25548 0
M  V30 3225 C 316.246 0.647392 1.75116 0
M  V30 3226 C 316.597 -0.837274 1.77438 0
M  V30 3227 O 315.722 -1.65525 1.39393 0
M  V30 3228 C 316.317 1.16845 3.18014 0
M  V30 3229 C 314.876 0.913382 3.6515 0
M  V30 3230 C 314.023 1.31265 2.44264 0
M  V30 3231 H 316.974 1.12968 1.11462 0
M  V30 3232 H 316.995 0.527606 3.76824 0
M  V30 3233 H 316.507 2.24902 3.16292 0
M  V30 3234 H 314.608 -0.152316 3.72289 0
M  V30 3235 H 314.721 1.54845 4.53387 0
M  V30 3236 H 313.085 0.731028 2.43984 0
M  V30 3237 H 313.868 2.40239 2.45234 0
M  V30 3238 N 316.313 -1.40141 0.720998 0
M  V30 3239 C 317.562 -2.0002 0.259804 0
M  V30 3240 C 317.875 -1.57839 -1.15526 0
M  V30 3241 O 319.081 -2.10455 -1.71525 0
M  V30 3242 C 317.537 -3.57516 0.413566 0
M  V30 3243 C 317.145 -4.08667 1.83562 0
M  V30 3244 C 318.889 -4.24498 0.0134387 0
M  V30 3245 C 316.796 -5.58686 1.93968 0
M  V30 3246 H 315.726 -0.748195 0.0933806 0
M  V30 3247 H 318.377 -1.60313 0.892866 0
M  V30 3248 H 316.759 -3.9495 -0.288169 0
M  V30 3249 H 317.933 -3.82598 2.56817 0
M  V30 3250 H 316.248 -3.543 2.1877 0
M  V30 3251 H 318.845 -5.34654 0.0703954 0
M  V30 3252 H 319.188 -4.03375 -1.02927 0
M  V30 3253 H 319.721 -3.92188 0.665815 0
M  V30 3254 H 316.46 -5.8467 2.96379 0
M  V30 3255 H 315.98 -5.86602 1.25131 0
M  V30 3256 H 317.659 -6.23875 1.71431 0
M  V30 3257 N 317.792 -0.46758 -1.50504 0
M  V30 3258 C 318.702 0.33382 -2.32213 0
M  V30 3259 C 319.718 0.999323 -1.42441 0
M  V30 3260 O 320.894 0.988068 -1.75497 0
M  V30 3261 C 317.959 1.4035 -3.17022 0
M  V30 3262 C 317.02 0.754961 -4.2261 0
M  V30 3263 C 316.253 1.77367 -5.03365 0
M  V30 3264 O 316.476 2.99976 -4.8515 0
M  V30 3265 O 315.41 1.34744 -5.86624 0
M  V30 3266 H 319.236 -0.334067 -3.01857 0
M  V30 3267 H 316.821 -0.229496 -1.47627 0
M  V30 3268 H 318.703 2.02318 -3.69656 0
M  V30 3269 H 317.378 2.05492 -2.5011 0
M  V30 3270 H 316.285 0.0964244 -3.73976 0
M  V30 3271 H 317.618 0.146545 -4.91982 0
M  V30 3272 N 319.27 1.56325 -0.20005 0
M  V30 3273 C 320.217 2.1932 0.718833 0
M  V30 3274 C 321.187 1.14198 1.20615 0
M  V30 3275 O 322.372 1.42469 1.26914 0
M  V30 3276 C 319.512 2.86041 1.93066 0
M  V30 3277 C 318.625 4.05702 1.48425 0
M  V30 3278 C 317.76 4.60266 2.65196 0
M  V30 3279 C 316.799 5.72273 2.17185 0
M  V30 3280 N 315.936 6.21221 3.27152 0
M  V30 3281 H 320.776 2.97486 0.17489 0
M  V30 3282 H 318.313 1.46911 0.0745794 0
M  V30 3283 H 320.271 3.22897 2.64184 0
M  V30 3284 H 318.901 2.1043 2.44783 0
M  V30 3285 H 317.953 3.74475 0.668755 0
M  V30 3286 H 319.265 4.86699 1.09204 0
M  V30 3287 H 318.419 4.99453 3.4443 0
M  V30 3288 H 317.158 3.78386 3.07693 0
M  V30 3289 H 316.163 5.3261 1.36407 0
M  V30 3290 H 317.388 6.55974 1.75713 0
M  V30 3291 H 315.334 5.42263 3.69171 0
M  V30 3292 H 315.251 6.97284 2.92116 0
M  V30 3293 H 316.519 6.65063 4.06585 0
M  V30 3294 N 320.748 -0.0735177 1.57428 0
M  V30 3295 C 321.976 -0.785969 1.9139 0
M  V30 3296 C 322.391 -1.71207 0.795847 0
M  V30 3297 O 321.748 -1.81033 -0.230915 0
M  V30 3298 C 321.799 -1.58107 3.25091 0
M  V30 3299 O 321.52 -0.6922 4.32597 0
M  V30 3300 C 323.021 -2.39467 3.73055 0
M  V30 3301 H 320.241 -0.223558 0.632663 0
M  V30 3302 H 322.785 -0.044302 2.04452 0
M  V30 3303 H 320.94 -2.27503 3.13562 0
M  V30 3304 H 321.354 -1.24504 5.09508 0
M  V30 3305 H 322.828 -2.90716 4.69242 0
M  V30 3306 H 323.305 -3.18913 3.01979 0
M  V30 3307 H 323.911 -1.7523 3.87523 0
M  V30 3308 N 322.226 -1.5378 -0.344866 0
M  V30 3309 C 323.475 -1.7018 -1.08267 0
M  V30 3310 C 323.788 -0.471 -1.89845 0
M  V30 3311 O 324.994 -0.515917 -2.66553 0
M  V30 3312 C 323.45 -3.00923 -1.97417 0
M  V30 3313 C 323.058 -4.31335 -1.21053 0
M  V30 3314 C 324.802 -3.26688 -2.71063 0
M  V30 3315 C 322.709 -5.53153 -2.09225 0
M  V30 3316 H 321.639 -0.634138 -0.407903 0
M  V30 3317 H 324.29 -1.8028 -0.342246 0
M  V30 3318 H 322.672 -2.84676 -2.75274 0
M  V30 3319 H 323.846 -4.58281 -0.481159 0
M  V30 3320 H 322.161 -4.12173 -0.591813 0
M  V30 3321 H 324.758 -4.1489 -3.37299 0
M  V30 3322 H 325.101 -2.43639 -3.37558 0
M  V30 3323 H 325.634 -3.43705 -2.0028 0
M  V30 3324 H 322.373 -6.38741 -1.47274 0
M  V30 3325 H 321.893 -5.30458 -2.79955 0
M  V30 3326 H 323.572 -5.88744 -2.68308 0
M  V30 3327 N 323.704 0.605807 -1.45491 0
M  V30 3328 C 324.929 1.39625 -1.53361 0
M  V30 3329 C 325.354 1.87351 -0.167645 0
M  V30 3330 O 324.712 1.60243 0.848051 0
M  V30 3331 C 324.76 2.57559 -2.5238 0
M  V30 3332 O 323.864 3.58248 -2.04285 0
M  V30 3333 H 323.205 0.416771 -0.516912 0
M  V30 3334 H 325.735 0.737103 -1.90861 0
M  V30 3335 H 325.745 3.0478 -2.71244 0
M  V30 3336 H 324.42 2.22171 -3.51586 0
M  V30 3337 H 322.997 3.17664 -1.95305 0
M  V30 3338 N 325.182 1.32811 0.848464 0
M  V30 3339 C 326.129 1.22265 1.95755 0
M  V30 3340 C 327.099 0.103413 1.65778 0
M  V30 3341 O 328.284 0.280033 1.88734 0
M  V30 3342 C 325.424 0.958014 3.31536 0
M  V30 3343 C 324.537 2.16262 3.73971 0
M  V30 3344 C 323.672 1.83295 4.98575 0
M  V30 3345 C 322.711 3.00041 5.33518 0
M  V30 3346 N 321.848 2.67125 6.49299 0
M  V30 3347 H 326.688 2.17128 2.04107 0
M  V30 3348 H 324.225 1.07982 0.998913 0
M  V30 3349 H 326.183 0.785052 4.09747 0
M  V30 3350 H 324.813 0.046159 3.22767 0
M  V30 3351 H 323.865 2.44565 2.91362 0
M  V30 3352 H 325.177 3.03572 3.95785 0
M  V30 3353 H 324.331 1.62586 5.84509 0
M  V30 3354 H 323.07 0.932078 4.7871 0
M  V30 3355 H 322.075 3.21374 4.46093 0
M  V30 3356 H 323.3 3.90869 5.55336 0
M  V30 3357 H 321.246 1.79586 6.3094 0
M  V30 3358 H 321.163 3.47965 6.71161 0
M  V30 3359 H 322.431 2.49861 7.3837 0
M  V30 3360 N 326.66 -1.06551 1.16123 0
M  V30 3361 C 327.623 -2.12132 0.867906 0
M  V30 3362 C 328.623 -1.60224 -0.135944 0
M  V30 3363 O 329.813 -1.73943 0.0946422 0
M  V30 3364 C 326.945 -3.396 0.297419 0
M  V30 3365 H 328.138 -2.39586 1.80385 0
M  V30 3366 H 325.691 -1.22574 0.969812 0
M  V30 3367 H 326.426 -3.17794 -0.64633 0
M  V30 3368 H 326.211 -3.78581 1.02073 0
M  V30 3369 H 327.701 -4.17455 0.110052 0
M  V30 3370 N 328.138 -0.959301 -1.25041 0
M  V30 3371 C 329.085 -0.482057 -2.2571 0
M  V30 3372 C 330.055 0.467939 -1.59372 0
M  V30 3373 O 331.24 0.380159 -1.86974 0
M  V30 3374 C 328.38 0.229623 -3.44335 0
M  V30 3375 C 327.493 -0.758156 -4.25295 0
M  V30 3376 C 326.628 -0.0234403 -5.31195 0
M  V30 3377 C 325.667 -1.00184 -6.03846 0
M  V30 3378 N 324.804 -0.29769 -7.01469 0
M  V30 3379 H 329.644 -1.34538 -2.65901 0
M  V30 3380 H 327.181 -0.674592 -1.3072 0
M  V30 3381 H 329.139 0.658856 -4.11965 0
M  V30 3382 H 327.769 1.05696 -3.05005 0
M  V30 3383 H 326.821 -1.30586 -3.57284 0
M  V30 3384 H 328.133 -1.50458 -4.75567 0
M  V30 3385 H 327.287 0.464201 -6.04922 0
M  V30 3386 H 326.026 0.755741 -4.81809 0
M  V30 3387 H 325.031 -1.50044 -5.2893 0
M  V30 3388 H 326.256 -1.78133 -6.55321 0
M  V30 3389 H 324.202 0.462668 -6.54366 0
M  V30 3390 H 324.119 -0.983128 -7.4958 0
M  V30 3391 H 325.387 0.16826 -7.79318 0
M  V30 3392 N 329.616 1.39756 -0.72842 0
M  V30 3393 C 330.864 2.00248 -0.272946 0
M  V30 3394 C 331.185 1.58077 1.14178 0
M  V30 3395 O 330.455 0.826014 1.77634 0
M  V30 3396 H 329.035 0.740554 -0.0979247 0
M  V30 3397 H 331.697 1.70903 -0.936912 0
M  V30 3398 H 330.793 3.10495 -0.316142 0
M  V30 3399 N 331.094 0.475555 1.50254 0
M  V30 3400 C 332.026 -0.352649 2.26471 0
M  V30 3401 C 333.039 -0.953165 1.3198 0
M  V30 3402 O 334.228 -0.840815 1.57457 0
M  V30 3403 C 331.328 -1.50902 3.0345 0
M  V30 3404 C 330.501 -1.02047 4.25329 0
M  V30 3405 C 329.56 -2.05142 4.84565 0
M  V30 3406 O 328.586 -1.63023 5.45355 0
M  V30 3407 N 329.788 -3.37987 4.71959 0
M  V30 3408 H 332.553 0.300767 2.98187 0
M  V30 3409 H 330.114 0.306598 1.5897 0
M  V30 3410 H 332.106 -2.19572 3.39956 0
M  V30 3411 H 330.676 -2.06705 2.34504 0
M  V30 3412 H 329.896 -0.159507 3.93877 0
M  V30 3413 H 331.184 -0.672061 5.04342 0
M  V30 3414 H 330.582 -3.74913 4.23623 0
M  V30 3415 H 329.139 -4.02443 5.12721 0
M  V30 3416 N 332.573 -1.56217 0.208337 0
M  V30 3417 C 333.984 -1.84243 -0.301904 0
M  V30 3418 C 334.335 -1.12939 -1.60434 0
M  V30 3419 O 333.46 -0.39461 -2.12772 0
M  V30 3420 C 334.055 -3.34231 -0.554543 0
M  V30 3421 C 332.614 -3.62621 -1.00912 0
M  V30 3422 C 331.761 -2.77224 -0.064933 0
M  V30 3423 H 334.712 -1.52712 0.431833 0
M  V30 3424 H 334.733 -3.5372 -1.40223 0
M  V30 3425 H 334.245 -3.86099 0.393561 0
M  V30 3426 H 332.346 -3.16197 -1.97104 0
M  V30 3427 H 332.459 -4.7071 -0.892674 0
M  V30 3428 H 330.823 -2.48256 -0.56929 0
M  V30 3429 H 331.606 -3.31887 0.877851 0
M  V30 3430 N 334.051 0.0651679 -1.57465 0
M  V30 3431 C 335.467 0.420105 -1.53972 0
M  V30 3432 C 335.667 1.78782 -0.929474 0
M  V30 3433 O 334.723 2.46771 -0.534839 0
M  V30 3434 C 336.036 0.355084 -2.98596 0
M  V30 3435 C 337.584 0.434792 -3.09965 0
M  V30 3436 C 338.059 0.399609 -4.56253 0
M  V30 3437 N 339.55 0.459488 -4.60915 0
M  V30 3438 C 340.285 0.454584 -5.71595 0
M  V30 3439 N 339.781 0.404102 -6.9162 0
M  V30 3440 N 341.574 0.501635 -5.59857 0
M  V30 3441 H 333.725 -0.830328 -1.95498 0
M  V30 3442 H 335.988 -0.312244 -0.895102 0
M  V30 3443 H 335.694 -0.583357 -3.46828 0
M  V30 3444 H 335.568 1.16275 -3.58831 0
M  V30 3445 H 337.955 1.36366 -2.61703 0
M  V30 3446 H 338.036 -0.40157 -2.52628 0
M  V30 3447 H 337.68 -0.525436 -5.05175 0
M  V30 3448 H 337.61 1.25359 -5.11461 0
M  V30 3449 H 340.101 0.502482 -3.74544 0
M  V30 3450 H 340.414 0.404468 -7.71741 0
M  V30 3451 H 338.759 0.37069 -6.94011 0
M  V30 3452 H 341.95 0.538812 -4.64989 0
M  V30 3453 H 342.123 0.494345 -6.46112 0
M  V30 3454 N 335.529 1.53961 0.336706 0
M  V30 3455 C 336.439 1.85432 1.43708 0
M  V30 3456 C 337.455 0.745053 1.57242 0
M  V30 3457 O 338.631 1.03804 1.72588 0
M  V30 3458 C 335.696 2.06349 2.78605 0
M  V30 3459 C 334.757 3.30191 2.74358 0
M  V30 3460 C 333.99 3.50101 4.02822 0
M  V30 3461 O 334.213 2.7371 5.00439 0
M  V30 3462 O 333.147 4.43547 4.06878 0
M  V30 3463 H 336.973 2.78975 1.20028 0
M  V30 3464 H 334.558 1.39701 0.52952 0
M  V30 3465 H 336.44 2.21513 3.58483 0
M  V30 3466 H 335.115 1.15995 3.02203 0
M  V30 3467 H 334.022 3.20425 1.93078 0
M  V30 3468 H 335.355 4.2056 2.55715 0
M  V30 3469 N 337.007 -0.598083 1.45811 0
M  V30 3470 C 338.418 -1.18011 1.44673 0
M  V30 3471 C 338.769 -1.95378 0.179364 0
M  V30 3472 O 337.894 -2.04124 -0.718509 0
M  V30 3473 C 338.489 -2.14677 2.62105 0
M  V30 3474 C 337.048 -2.68236 2.64057 0
M  V30 3475 C 336.195 -1.43816 2.37091 0
M  V30 3476 H 339.146 -0.38686 1.53913 0
M  V30 3477 H 339.167 -2.97878 2.36746 0
M  V30 3478 H 338.679 -1.5834 3.5433 0
M  V30 3479 H 336.78 -3.28486 1.75864 0
M  V30 3480 H 336.893 -3.12021 3.63566 0
M  V30 3481 H 335.257 -1.731 1.86838 0
M  V30 3482 H 336.04 -0.893333 3.31473 0
M  V30 3483 N 338.485 -1.33259 -0.841409 0
M  V30 3484 C 339.417 -1.19136 -1.95804 0
M  V30 3485 C 340.43 -0.122965 -1.62335 0
M  V30 3486 O 341.619 -0.373154 -1.74556 0
M  V30 3487 C 338.719 -0.804268 -3.29218 0
M  V30 3488 C 337.892 -1.96376 -3.90839 0
M  V30 3489 C 336.951 -1.55806 -5.02604 0
M  V30 3490 O 335.977 -2.27203 -5.21888 0
M  V30 3491 N 337.179 -0.461609 -5.78662 0
M  V30 3492 H 339.944 -2.15326 -2.08458 0
M  V30 3493 H 337.505 -1.25971 -1.017 0
M  V30 3494 H 339.497 -0.51501 -4.0141 0
M  V30 3495 H 338.067 0.0668809 -3.12528 0
M  V30 3496 H 337.287 -2.41879 -3.11269 0
M  V30 3497 H 338.575 -2.73966 -4.28742 0
M  V30 3498 H 337.973 0.132343 -5.65545 0
M  V30 3499 H 336.53 -0.232013 -6.51387 0
M  V30 3500 N 339.963 1.05934 -1.16686 0
M  V30 3501 C 341.209 1.79065 -0.95203 0
M  V30 3502 C 341.542 1.87147 0.518629 0
M  V30 3503 O 340.817 1.36574 1.38484 0
M  V30 3504 C 341.1 3.23359 -1.58464 0
M  V30 3505 C 340.953 3.23336 -3.12689 0
M  V30 3506 C 342.272 4.21004 -1.28232 0
M  V30 3507 H 339.391 0.65005 -0.34728 0
M  V30 3508 H 342.033 1.23868 -1.44072 0
M  V30 3509 H 340.183 3.70493 -1.16908 0
M  V30 3510 H 341.855 2.84336 -3.6325 0
M  V30 3511 H 340.098 2.61886 -3.4583 0
M  V30 3512 H 340.769 4.25144 -3.52075 0
M  V30 3513 H 343.245 3.8233 -1.64203 0
M  V30 3514 H 342.121 5.20225 -1.75092 0
M  V30 3515 H 342.382 4.41639 -0.201791 0
M  V30 3516 N 341.441 0.965919 1.2453 0
M  V30 3517 C 342.671 0.643451 1.96324 0
M  V30 3518 C 343.079 -0.790927 1.71875 0
M  V30 3519 O 342.422 -1.54208 0.998273 0
M  V30 3520 C 342.484 0.836078 3.49643 0
M  V30 3521 C 342.148 2.24975 3.97788 0
M  V30 3522 C 343.145 3.22735 4.07601 0
M  V30 3523 C 340.83 2.57697 4.31158 0
M  V30 3524 C 342.824 4.51303 4.50116 0
M  V30 3525 C 340.511 3.86492 4.73357 0
M  V30 3526 C 341.509 4.83107 4.828 0
M  V30 3527 O 341.197 6.09605 5.24058 0
M  V30 3528 H 340.929 0.239223 0.632257 0
M  V30 3529 H 343.483 1.29587 1.59362 0
M  V30 3530 H 341.713 0.12649 3.86493 0
M  V30 3531 H 343.402 0.512965 4.02646 0
M  V30 3532 H 344.168 2.98783 3.82039 0
M  V30 3533 H 340.047 1.83216 4.23028 0
M  V30 3534 H 343.591 5.26716 4.57401 0
M  V30 3535 H 339.488 4.10245 4.98366 0
M  V30 3536 H 340.256 6.13146 5.42213 0
M  V30 3537 N 342.919 -1.39368 0.735821 0
M  V30 3538 C 344.147 -2.04795 0.294393 0
M  V30 3539 C 344.562 -1.55478 -1.07107 0
M  V30 3540 O 343.919 -0.720038 -1.67695 0
M  V30 3541 C 343.97 -3.6035 0.288071 0
M  V30 3542 O 343.691 -4.07852 1.59963 0
M  V30 3543 C 345.192 -4.42976 -0.169422 0
M  V30 3544 H 342.412 -0.658571 0.128551 0
M  V30 3545 H 344.956 -1.78399 0.999701 0
M  V30 3546 H 343.111 -3.85645 -0.368355 0
M  V30 3547 H 343.525 -5.02181 1.51375 0
M  V30 3548 H 344.999 -5.51864 -0.122687 0
M  V30 3549 H 345.476 -4.22068 -1.21472 0
M  V30 3550 H 346.082 -4.22832 0.457469 0
M  V30 3551 N 344.397 -0.483516 -1.5 0
M  V30 3552 C 345.327 0.293829 -2.31644 0
M  V30 3553 C 346.308 0.978864 -1.39112 0
M  V30 3554 O 347.493 0.973644 -1.68029 0
M  V30 3555 C 344.623 1.36897 -3.19181 0
M  V30 3556 C 343.577 0.804833 -4.20365 0
M  V30 3557 C 342.903 1.9792 -4.96721 0
M  V30 3558 C 344.203 -0.192313 -5.21946 0
M  V30 3559 H 345.897 -0.387616 -2.9688 0
M  V30 3560 H 343.443 -0.187856 -1.42769 0
M  V30 3561 H 345.396 1.92037 -3.751 0
M  V30 3562 H 344.12 2.07936 -2.51853 0
M  V30 3563 H 342.779 0.275319 -3.65565 0
M  V30 3564 H 342.427 2.67686 -4.25856 0
M  V30 3565 H 342.127 1.60789 -5.65173 0
M  V30 3566 H 343.651 2.53526 -5.55479 0
M  V30 3567 H 345.065 0.270333 -5.72662 0
M  V30 3568 H 343.462 -0.478543 -5.98189 0
M  V30 3569 H 344.532 -1.11409 -4.71928 0
M  V30 3570 N 345.875 1.56104 -0.216619 0
M  V30 3571 C 347.286 1.844 0.292128 0
M  V30 3572 C 347.637 1.13788 1.59833 0
M  V30 3573 O 346.762 0.405888 2.12559 0
M  V30 3574 C 347.357 3.3452 0.53681 0
M  V30 3575 C 345.916 3.63151 0.989876 0
M  V30 3576 C 345.063 2.77255 0.0502302 0
M  V30 3577 H 348.014 1.52481 -0.439926 0
M  V30 3578 H 348.035 3.54459 1.38345 0
M  V30 3579 H 347.547 3.85885 -0.414031 0
M  V30 3580 H 345.648 3.17238 1.95425 0
M  V30 3581 H 345.761 4.71177 0.867698 0
M  V30 3582 H 344.125 2.48555 0.556117 0
M  V30 3583 H 344.908 3.31416 -0.89544 0
M  V30 3584 N 347.353 -0.0568162 1.57498 0
M  V30 3585 C 348.764 -0.606858 1.76562 0
M  V30 3586 C 349.115 -1.77114 0.844094 0
M  V30 3587 O 348.24 -2.16376 0.0318911 0
M  V30 3588 C 348.835 -1.10766 3.20182 0
M  V30 3589 C 347.394 -1.60344 3.40539 0
M  V30 3590 C 346.541 -0.529311 2.72201 0
M  V30 3591 H 349.492 0.169393 1.57793 0
M  V30 3592 H 349.513 -1.97602 3.25167 0
M  V30 3593 H 349.025 -0.26006 3.87228 0
M  V30 3594 H 347.126 -2.47379 2.78629 0
M  V30 3595 H 347.239 -1.67006 4.4905 0
M  V30 3596 H 345.603 -0.977893 2.35179 0
M  V30 3597 H 346.386 0.308352 3.41912 0
M  V30 3598 N 348.832 -1.54138 -0.328536 0
M  V30 3599 C 350.057 -1.76378 -1.09112 0
M  V30 3600 C 350.482 -0.508596 -1.81094 0
M  V30 3601 O 349.84 0.539598 -1.73084 0
M  V30 3602 C 349.888 -2.95358 -2.06872 0
M  V30 3603 O 348.992 -2.66556 -3.14677 0
M  V30 3604 H 348.333 -0.584614 -0.314838 0
M  V30 3605 H 350.863 -2.01146 -0.374348 0
M  V30 3606 H 350.873 -3.22566 -2.4983 0
M  V30 3607 H 349.548 -3.86385 -1.5388 0
M  V30 3608 H 348.125 -2.50282 -2.7643 0
M  V30 3609 N 350.31 0.590341 -1.46126 0
M  V30 3610 C 351.726 0.912917 -1.30912 0
M  V30 3611 C 351.926 1.99616 -0.274893 0
M  V30 3612 O 350.982 2.50397 0.325197 0
M  V30 3613 C 352.295 1.3375 -2.69317 0
M  V30 3614 C 353.843 1.45077 -2.77348 0
M  V30 3615 C 354.318 1.90904 -4.16317 0
M  V30 3616 N 355.809 1.9811 -4.18696 0
M  V30 3617 C 356.544 2.34828 -5.23109 0
M  V30 3618 N 356.04 2.70393 -6.37856 0
M  V30 3619 N 357.833 2.35317 -5.10473 0
M  V30 3620 H 349.984 -0.125358 -2.1203 0
M  V30 3621 H 352.247 0.00658481 -0.947977 0
M  V30 3622 H 351.953 0.615614 -3.4627 0
M  V30 3623 H 351.827 2.30058 -2.9892 0
M  V30 3624 H 354.214 2.16353 -2.00687 0
M  V30 3625 H 354.295 0.4704 -2.51438 0
M  V30 3626 H 353.939 1.20209 -4.9347 0
M  V30 3627 H 353.869 2.89886 -4.39629 0
M  V30 3628 H 356.36 1.73146 -3.359 0
M  V30 3629 H 356.673 2.97341 -7.13308 0
M  V30 3630 H 355.018 2.68048 -6.41229 0
M  V30 3631 H 358.209 2.0695 -4.19868 0
M  V30 3632 H 358.382 2.63605 -5.9196 0
M  V30 3633 N 351.788 1.33704 0.83433 0
M  V30 3634 C 353.065 1.16011 1.57483 0
M  V30 3635 C 353.445 -0.27176 2.09343 0
M  V30 3636 O 352.793 -1.27146 1.89858 0
M  V30 3637 C 353.003 2.20507 2.70514 0
M  V30 3638 C 354.351 2.54898 3.39577 0
M  V30 3639 O 355.375 2.19209 2.80759 0
M  V30 3640 O 354.234 3.16158 4.45765 0
M  V30 3641 H 351.328 0.448992 0.694503 0
M  V30 3642 H 353.874 1.453 0.876691 0
M  V30 3643 H 352.646 3.16667 2.29865 0
M  V30 3644 H 352.269 1.92329 3.47987 0
M  V30 3645 N 353.266 -1.05314 1.17247 0
M  V30 3646 C 354.176 -2.16538 0.90268 0
M  V30 3647 C 355.192 -1.73523 -0.128707 0
M  V30 3648 O 356.368 -2.01337 0.0502701 0
M  V30 3649 C 353.433 -3.44167 0.418356 0
M  V30 3650 C 352.494 -4.01635 1.51618 0
M  V30 3651 C 351.727 -5.23171 1.05487 0
M  V30 3652 O 351.95 -5.70327 -0.0914715 0
M  V30 3653 O 350.884 -5.72848 1.8474 0
M  V30 3654 H 354.71 -2.42145 1.83302 0
M  V30 3655 H 352.295 -1.15037 0.953246 0
M  V30 3656 H 354.177 -4.21112 0.155726 0
M  V30 3657 H 352.852 -3.20063 -0.48385 0
M  V30 3658 H 351.759 -3.26135 1.83268 0
M  V30 3659 H 353.092 -4.30053 2.39405 0
M  V30 3660 N 354.744 -0.972509 -1.24016 0
M  V30 3661 C 355.674 -0.525548 -2.27509 0
M  V30 3662 C 356.655 0.437262 -1.64384 0
M  V30 3663 O 357.84 0.332343 -1.91335 0
M  V30 3664 C 354.97 0.180448 -3.46831 0
M  V30 3665 C 353.924 -0.698859 -4.22256 0
M  V30 3666 C 353.25 0.138903 -5.3452 0
M  V30 3667 C 354.55 -1.98582 -4.83076 0
M  V30 3668 H 356.244 -1.39058 -2.65148 0
M  V30 3669 H 353.79 -0.67009 -1.27459 0
M  V30 3670 H 355.743 0.504387 -4.18371 0
M  V30 3671 H 354.467 1.07987 -3.08231 0
M  V30 3672 H 353.126 -1.00614 -3.52523 0
M  V30 3673 H 352.774 1.03862 -4.9216 0
M  V30 3674 H 352.474 -0.446259 -5.85903 0
M  V30 3675 H 353.998 0.457404 -6.08884 0
M  V30 3676 H 355.412 -1.72715 -5.46665 0
M  V30 3677 H 353.809 -2.5181 -5.44713 0
M  V30 3678 H 354.879 -2.67769 -4.04262 0
M  V30 3679 N 356.222 1.38976 -0.743202 0
M  V30 3680 C 357.45 2.04636 -0.30525 0
M  V30 3681 C 357.865 1.56044 1.06281 0
M  V30 3682 O 357.222 0.728921 1.67311 0
M  V30 3683 C 357.273 3.60193 -0.307177 0
M  V30 3684 O 356.994 4.06998 -1.62124 0
M  V30 3685 C 358.495 4.4306 0.145928 0
M  V30 3686 H 355.715 0.65788 -0.132041 0
M  V30 3687 H 358.259 1.77866 -1.00915 0
M  V30 3688 H 356.414 3.85835 0.347898 0
M  V30 3689 H 356.828 5.01371 -1.54036 0
M  V30 3690 H 358.302 5.51921 0.0934183 0
M  V30 3691 H 358.779 4.22706 1.19231 0
M  V30 3692 H 359.385 4.22584 -0.479886 0
M  V30 3693 N 357.7 0.491464 1.49741 0
M  V30 3694 C 358.647 -0.292027 2.28945 0
M  V30 3695 C 359.617 -0.968973 1.34908 0
M  V30 3696 O 360.802 -0.97748 1.6386 0
M  V30 3697 C 357.942 -1.35617 3.17336 0
M  V30 3698 C 357.055 -0.691957 4.26422 0
M  V30 3699 C 356.19 -1.73572 5.02042 0
M  V30 3700 C 355.229 -1.05286 6.02977 0
M  V30 3701 N 354.366 -2.0404 6.71798 0
M  V30 3702 H 359.206 0.389654 2.95442 0
M  V30 3703 H 356.743 0.204003 1.45679 0
M  V30 3704 H 358.701 -1.98502 3.66951 0
M  V30 3705 H 357.331 -2.00674 2.52844 0
M  V30 3706 H 356.383 0.0499523 3.80367 0
M  V30 3707 H 357.695 -0.153946 4.98562 0
M  V30 3708 H 356.849 -2.43987 5.55478 0
M  V30 3709 H 355.588 -2.30757 4.29654 0
M  V30 3710 H 354.593 -0.334446 5.48782 0
M  V30 3711 H 355.818 -0.487636 6.77347 0
M  V30 3712 H 353.764 -2.60205 6.02187 0
M  V30 3713 H 353.681 -1.55279 7.39881 0
M  V30 3714 H 354.949 -2.73772 7.29842 0
M  V30 3715 N 359.178 -1.55987 0.224894 0
M  V30 3716 C 360.126 -2.21808 -0.700283 0
M  V30 3717 C 361.12 -1.19854 -1.19714 0
M  V30 3718 O 362.326 -1.37925 -1.15658 0
M  V30 3719 H 358.701 -0.711226 -0.244258 0
M  V30 3720 H 360.672 -2.98152 -0.121749 0
M  V30 3721 C 359.421 -2.91444 -1.8962 0
M  V30 3722 H 358.744 -3.69655 -1.52299 0
M  V30 3723 H 360.184 -3.40894 -2.52125 0
M  V30 3724 C 358.643 -1.94098 -2.75368 0
M  V30 3725 O 359.173 -1.46004 -3.74227 0
M  V30 3726 N 357.379 -1.61675 -2.41474 0
M  V30 3727 H 356.926 -2.00979 -1.61137 0
M  V30 3728 H 356.884 -0.968036 -2.99126 0
M  V30 3729 N 360.656 0.0484629 -1.57525 0
M  V30 3730 C 361.588 1.08222 -2.02041 0
M  V30 3731 C 362.601 1.33621 -0.930012 0
M  V30 3732 O 363.79 1.3145 -1.20761 0
M  V30 3733 C 360.89 2.42818 -2.36416 0
M  V30 3734 C 360.063 2.37049 -3.67596 0
M  V30 3735 C 359.122 3.53937 -3.89378 0
M  V30 3736 O 358.148 3.34308 -4.60681 0
M  V30 3737 N 359.35 4.75126 -3.3352 0
M  V30 3738 H 362.115 0.702946 -2.9134 0
M  V30 3739 H 359.676 0.236745 -1.6016 0
M  V30 3740 H 361.668 3.197 -2.48141 0
M  V30 3741 H 360.238 2.72661 -1.52888 0
M  V30 3742 H 359.458 1.45395 -3.66407 0
M  V30 3743 H 360.746 2.30318 -4.53686 0
M  V30 3744 H 360.144 4.93976 -2.75688 0
M  V30 3745 H 358.701 5.49439 -3.50656 0
M  V30 3746 N 362.134 1.5431 0.320358 0
M  V30 3747 C 363.38 1.72924 1.05949 0
M  V30 3748 C 363.713 0.503185 1.87568 0
M  V30 3749 O 362.988 -0.499839 1.87968 0
M  V30 3750 C 363.271 3.00676 1.98156 0
M  V30 3751 C 363.124 4.3354 1.19845 0
M  V30 3752 C 364.443 3.24198 2.9763 0
M  V30 3753 H 361.562 0.629195 0.383774 0
M  V30 3754 H 364.204 1.87008 0.335854 0
M  V30 3755 H 362.354 2.888 2.59859 0
M  V30 3756 H 364.026 4.57305 0.605773 0
M  V30 3757 H 362.269 4.309 0.500784 0
M  V30 3758 H 362.94 5.19156 1.87567 0
M  V30 3759 H 365.416 3.35557 2.4605 0
M  V30 3760 H 364.292 4.14938 3.59329 0
M  V30 3761 H 364.553 2.41577 3.7026 0
M  V30 3762 N 363.613 -0.582584 1.46437 0
M  V30 3763 C 364.838 -1.37168 1.55563 0
M  V30 3764 C 365.263 -1.87061 0.19743 0
M  V30 3765 O 364.621 -1.61572 -0.822451 0
M  V30 3766 C 364.669 -2.53511 2.56446 0
M  V30 3767 O 363.773 -3.54953 2.09958 0
M  V30 3768 H 363.114 -0.408494 0.523477 0
M  V30 3769 H 365.644 -0.706646 1.9201 0
M  V30 3770 H 365.654 -3.00426 2.76058 0
M  V30 3771 H 364.329 -2.16549 3.55076 0
M  V30 3772 H 362.906 -3.14516 2.00334 0
M  V30 3773 N 365.091 -1.34144 -0.827227 0
M  V30 3774 C 366.021 -1.28005 -1.95287 0
M  V30 3775 C 367.002 -0.158321 -1.69362 0
M  V30 3776 O 368.187 -0.349987 -1.9102 0
M  V30 3777 C 365.317 -1.03036 -3.31664 0
M  V30 3778 C 364.271 -2.11628 -3.72019 0
M  V30 3779 C 363.597 -1.71854 -5.0633 0
M  V30 3780 C 364.897 -3.53417 -3.8457 0
M  V30 3781 H 366.591 -2.22187 -2.00682 0
M  V30 3782 H 364.137 -1.0696 -0.964135 0
M  V30 3783 H 366.09 -0.973863 -4.09993 0
M  V30 3784 H 364.814 -0.0529391 -3.26557 0
M  V30 3785 H 363.473 -2.16339 -2.95961 0
M  V30 3786 H 363.121 -0.727841 -4.97706 0
M  V30 3787 H 362.821 -2.44531 -5.34302 0
M  V30 3788 H 364.345 -1.67692 -5.87122 0
M  V30 3789 H 365.759 -3.51142 -4.5318 0
M  V30 3790 H 364.156 -4.24679 -4.2399 0
M  V30 3791 H 365.226 -3.91072 -2.86689 0
M  V30 3792 N 366.569 1.04691 -1.17803 0
M  V30 3793 C 367.797 1.81446 -0.99423 0
M  V30 3794 C 368.212 1.83174 0.457459 0
M  V30 3795 O 367.569 1.26265 1.31771 0
M  V30 3796 C 367.62 3.27334 -1.5341 0
M  V30 3797 O 367.341 3.25798 -2.92895 0
M  V30 3798 C 368.842 4.20759 -1.39559 0
M  V30 3799 H 366.062 0.571599 -0.351447 0
M  V30 3800 H 368.606 1.31982 -1.56208 0
M  V30 3801 H 366.761 3.74052 -1.00815 0
M  V30 3802 H 367.175 4.17144 -3.17949 0
M  V30 3803 H 368.649 5.21084 -1.82141 0
M  V30 3804 H 369.126 4.37856 -0.343394 0
M  V30 3805 H 369.732 3.79901 -1.91195 0
M  V30 3806 N 368.047 0.979072 1.23499 0
M  V30 3807 C 369.287 0.655228 1.93613 0
M  V30 3808 C 369.651 -0.796336 1.74707 0
M  V30 3809 O 370.852 -1.23094 2.38959 0
M  V30 3810 C 369.123 1.03337 3.42135 0
M  V30 3811 S 370.682 0.825793 4.3096 0
M  V30 3812 H 367.5 0.240004 0.669267 0
M  V30 3813 H 370.102 1.25843 1.49612 0
M  V30 3814 H 368.806 2.08646 3.53405 0
M  V30 3815 H 368.337 0.421397 3.91137 0
M  V30 3816 H 370.352 -0.290991 4.95346 0
M  V30 3817 N 369.525 -1.3858 0.750561 0
M  V30 3818 C 370.455 -2.33102 0.136237 0
M  V30 3819 C 371.436 -1.54713 -0.706965 0
M  V30 3820 O 372.621 -1.83043 -0.648769 0
M  V30 3821 C 369.751 -3.38882 -0.760017 0
M  V30 3822 C 368.705 -4.27995 -0.0197785 0
M  V30 3823 C 368.031 -5.24605 -1.03408 0
M  V30 3824 C 369.331 -5.09554 1.14684 0
M  V30 3825 H 371.025 -2.84726 0.925822 0
M  V30 3826 H 368.571 -1.36898 0.446654 0
M  V30 3827 H 370.524 -4.0397 -1.19943 0
M  V30 3828 H 369.248 -2.85734 -1.58189 0
M  V30 3829 H 367.907 -3.64409 0.400184 0
M  V30 3830 H 367.555 -4.67746 -1.84994 0
M  V30 3831 H 367.255 -5.85081 -0.543464 0
M  V30 3832 H 368.779 -5.9257 -1.47288 0
M  V30 3833 H 370.193 -5.67899 0.785118 0
M  V30 3834 H 368.59 -5.7925 1.56812 0
M  V30 3835 H 369.66 -4.4347 1.96118 0
M  V30 3836 N 371.003 -0.499398 -1.49478 0
M  V30 3837 C 372.249 0.0457576 -2.02748 0
M  V30 3838 C 372.582 1.36793 -1.37846 0
M  V30 3839 O 371.857 1.87596 -0.513601 0
M  V30 3840 C 372.14 0.199986 -3.59544 0
M  V30 3841 C 371.993 -1.1452 -4.34977 0
M  V30 3842 C 373.312 0.94137 -4.29914 0
M  V30 3843 H 370.431 0.0151552 -0.736844 0
M  V30 3844 H 373.073 -0.650498 -1.78518 0
M  V30 3845 H 371.223 0.793007 -3.8032 0
M  V30 3846 H 372.895 -1.77697 -4.25701 0
M  V30 3847 H 371.138 -1.73488 -3.97598 0
M  V30 3848 H 371.809 -0.990607 -5.43039 0
M  V30 3849 H 374.285 0.43844 -4.13784 0
M  V30 3850 H 373.161 1.01812 -5.39375 0
M  V30 3851 H 373.422 1.98471 -3.95046 0
M  V30 3852 N 372.481 1.55866 -0.233164 0
M  V30 3853 C 373.428 2.20796 0.67215 0
M  V30 3854 C 374.398 1.16731 1.18166 0
M  V30 3855 O 375.583 1.45129 1.23864 0
M  V30 3856 C 372.723 2.90072 1.86955 0
M  V30 3857 C 371.836 4.08759 1.39786 0
M  V30 3858 C 370.971 4.65787 2.55374 0
M  V30 3859 C 370.01 5.76752 2.04998 0
M  V30 3860 N 369.147 6.28021 3.13901 0
M  V30 3861 H 373.987 2.9779 0.111749 0
M  V30 3862 H 371.524 1.47036 0.0434007 0
M  V30 3863 H 373.482 3.28428 2.57276 0
M  V30 3864 H 372.112 2.15575 2.40265 0
M  V30 3865 H 371.164 3.7581 0.589173 0
M  V30 3866 H 372.476 4.88906 0.98856 0
M  V30 3867 H 371.63 5.06646 3.33758 0
M  V30 3868 H 370.369 3.84828 2.99598 0
M  V30 3869 H 369.374 5.35383 1.25079 0
M  V30 3870 H 370.599 6.59553 1.61759 0
M  V30 3871 H 368.545 5.49971 3.57586 0
M  V30 3872 H 368.462 7.03323 2.7726 0
M  V30 3873 H 369.73 6.73538 3.92386 0
M  V30 3874 N 373.959 -0.0401083 1.57549 0
M  V30 3875 C 375.207 -0.731677 1.8839 0
M  V30 3876 C 375.528 -1.76481 0.829425 0
M  V30 3877 O 374.798 -1.95411 -0.1383 0
M  V30 3878 H 373.378 -0.273225 0.695239 0
M  V30 3879 H 376.04 -0.00867725 1.94898 0
M  V30 3880 H 375.136 -1.22816 2.86919 0
M  V30 3881 N 375.437 -1.54477 -0.31217 0
M  V30 3882 C 376.684 -1.73227 -1.04875 0
M  V30 3883 C 377.012 -0.512042 -1.87639 0
M  V30 3884 O 376.267 0.506131 -1.89042 0
M  V30 3885 C 376.566 -2.967 -1.99258 0
M  V30 3886 C 376.232 -4.30974 -1.32559 0
M  V30 3887 C 374.894 -4.67477 -1.141 0
M  V30 3888 C 377.246 -5.14258 -0.847835 0
M  V30 3889 C 374.574 -5.84852 -0.465326 0
M  V30 3890 C 376.926 -6.32327 -0.185931 0
M  V30 3891 C 375.59 -6.67499 0.0107077 0
M  V30 3892 H 374.86 -0.633881 -0.383765 0
M  V30 3893 H 377.507 -1.88727 -0.324731 0
M  V30 3894 H 375.812 -2.75935 -2.7815 0
M  V30 3895 H 377.509 -3.08401 -2.563 0
M  V30 3896 H 374.099 -4.02262 -1.4793 0
M  V30 3897 H 378.283 -4.86565 -0.978192 0
M  V30 3898 H 373.539 -6.10654 -0.301883 0
M  V30 3899 H 377.713 -6.96135 0.192211 0
M  V30 3900 H 375.34 -7.58306 0.536287 0
M  V30 3901 N 376.915 0.57481 -1.46744 0
M  V30 3902 C 378.145 1.35659 -1.55821 0
M  V30 3903 C 378.553 1.88129 -0.201036 0
M  V30 3904 O 377.896 1.64723 0.813134 0
M  V30 3905 C 377.958 2.57473 -2.50894 0
M  V30 3906 C 377.622 2.26415 -3.9697 0
M  V30 3907 C 378.619 1.84771 -4.85958 0
M  V30 3908 C 376.304 2.38316 -4.42166 0
M  V30 3909 C 378.298 1.55434 -6.18158 0
M  V30 3910 C 375.985 2.08591 -5.74398 0
M  V30 3911 C 376.983 1.67216 -6.62214 0
M  V30 3912 O 376.671 1.37859 -7.91991 0
M  V30 3913 H 376.403 0.420496 -0.529301 0
M  V30 3914 H 378.957 0.704967 -1.92923 0
M  V30 3915 H 377.187 3.25468 -2.08824 0
M  V30 3916 H 378.876 3.19546 -2.50291 0
M  V30 3917 H 379.642 1.75085 -4.52295 0
M  V30 3918 H 375.521 2.69483 -3.74032 0
M  V30 3919 H 379.065 1.23065 -6.86659 0
M  V30 3920 H 374.962 2.17905 -6.07608 0
M  V30 3921 H 375.73 1.51638 -8.04331 0
M  V30 3922 N 378.394 1.34581 0.820102 0
M  V30 3923 C 379.805 1.24298 1.39309 0
M  V30 3924 C 380.156 -0.130351 1.95767 0
M  V30 3925 O 379.281 -1.0308 1.90272 0
M  V30 3926 C 379.876 2.25054 2.53251 0
M  V30 3927 C 378.435 2.18552 3.0645 0
M  V30 3928 C 377.582 2.11503 1.79337 0
M  V30 3929 H 380.533 1.45906 0.624262 0
M  V30 3930 H 380.554 1.86917 3.31425 0
M  V30 3931 H 380.066 3.24996 2.1213 0
M  V30 3932 H 378.167 1.21976 3.52069 0
M  V30 3933 H 378.28 3.0993 3.65349 0
M  V30 3934 H 376.644 1.57268 2.00347 0
M  V30 3935 H 377.427 3.13284 1.40386 0
M  V30 3936 N 379.872 -1.04064 1.18357 0
M  V30 3937 C 381.097 -1.81454 1.00445 0
M  V30 3938 C 381.522 -1.82823 -0.442423 0
M  V30 3939 O 380.88 -1.24555 -1.31741 0
M  V30 3940 C 380.928 -3.24925 1.56384 0
M  V30 3941 O 380.032 -4.04856 0.785209 0
M  V30 3942 H 379.373 -0.560604 0.355835 0
M  V30 3943 H 381.903 -1.31059 1.57114 0
M  V30 3944 H 381.913 -3.75702 1.59097 0
M  V30 3945 H 380.588 -3.23244 2.61699 0
M  V30 3946 H 379.165 -3.63537 0.830399 0
M  V30 3947 N 381.35 -0.985608 -1.22978 0
M  V30 3948 C 382.627 -0.573599 -1.87001 0
M  V30 3949 C 383.007 0.949213 -1.88555 0
M  V30 3950 O 382.355 1.82811 -1.37086 0
M  V30 3951 C 382.565 -1.18564 -3.28243 0
M  V30 3952 C 383.913 -1.28163 -4.04796 0
M  V30 3953 O 384.937 -1.13949 -3.37482 0
M  V30 3954 O 383.796 -1.50832 -5.25273 0
M  V30 3955 H 380.89 -0.193868 -0.803955 0
M  V30 3956 H 383.436 -1.08102 -1.30813 0
M  V30 3957 H 382.208 -2.22758 -3.21706 0
M  V30 3958 H 381.831 -0.663363 -3.92027 0
M  V30 3959 N 382.828 1.3818 -0.7579 0
M  V30 3960 C 384.077 1.99261 -0.312744 0
M  V30 3961 C 384.39 1.60846 1.11301 0
M  V30 3962 O 385.596 2.14929 1.65885 0
M  V30 3963 C 384.052 3.56294 -0.50821 0
M  V30 3964 C 383.66 4.03657 -1.94333 0
M  V30 3965 C 385.404 4.24313 -0.125982 0
M  V30 3966 C 383.311 5.53347 -2.08712 0
M  V30 3967 H 382.241 0.745456 -0.113185 0
M  V30 3968 H 384.892 1.57889 -0.935056 0
M  V30 3969 H 383.274 3.95575 0.183353 0
M  V30 3970 H 384.448 3.75655 -2.66871 0
M  V30 3971 H 382.763 3.48376 -2.28086 0
M  V30 3972 H 385.36 5.34279 -0.212125 0
M  V30 3973 H 385.703 4.05962 0.921964 0
M  V30 3974 H 386.236 3.90285 -0.769563 0
M  V30 3975 H 382.975 5.76607 -3.11777 0
M  V30 3976 H 382.495 5.83078 -1.4064 0
M  V30 3977 H 384.174 6.19111 -1.87912 0
M  V30 3978 N 384.306 0.507319 1.49211 0
M  V30 3979 C 385.269 -0.256763 2.27757 0
M  V30 3980 C 386.269 -0.888287 1.34038 0
M  V30 3981 O 387.459 -0.751841 1.5714 0
M  V30 3982 C 384.591 -1.36905 3.12202 0
M  V30 3983 H 385.784 0.432557 2.96764 0
M  V30 3984 H 383.337 0.262488 1.5408 0
M  V30 3985 H 384.072 -2.09233 2.47775 0
M  V30 3986 H 383.857 -0.921599 3.81115 0
M  V30 3987 H 385.347 -1.9071 3.7151 0
M  V30 3988 N 385.784 -1.5574 0.241426 0
M  V30 3989 C 387.03 -1.99104 -0.385406 0
M  V30 3990 C 387.363 -1.1293 -1.57988 0
M  V30 3991 O 386.638 -0.191449 -1.93555 0
M  V30 3992 C 386.921 -3.51087 -0.800616 0
M  V30 3993 C 386.774 -4.48028 0.398874 0
M  V30 3994 C 388.093 -4.08015 -1.64959 0
M  V30 3995 H 385.212 -0.723848 -0.138614 0
M  V30 3996 H 387.854 -1.86903 0.341642 0
M  V30 3997 H 386.004 -3.61615 -1.4201 0
M  V30 3998 H 387.676 -4.49487 1.03726 0
M  V30 3999 H 385.919 -4.21077 1.04293 0
M  V30 4000 H 386.59 -5.51962 0.0651056 0
M  V30 4001 H 389.066 -4.00555 -1.12672 0
M  V30 4002 H 387.942 -5.14635 -1.90898 0
M  V30 4003 H 388.203 -3.56131 -2.61961 0
M  V30 4004 N 387.262 0.0317525 -1.57568 0
M  V30 4005 C 388.172 1.05021 -2.0978 0
M  V30 4006 C 389.188 1.39809 -1.03583 0
M  V30 4007 O 390.364 1.49182 -1.35302 0
M  V30 4008 C 387.429 2.33301 -2.56459 0
M  V30 4009 C 386.49 2.0512 -3.77127 0
M  V30 4010 C 385.723 3.27283 -4.2157 0
M  V30 4011 O 385.946 4.37861 -3.65559 0
M  V30 4012 O 384.88 3.13141 -5.14029 0
M  V30 4013 H 388.706 0.636505 -2.96955 0
M  V30 4014 H 386.291 0.248559 -1.47318 0
M  V30 4015 H 388.173 3.08722 -2.86825 0
M  V30 4016 H 386.848 2.73973 -1.72397 0
M  V30 4017 H 385.755 1.27276 -3.51784 0
M  V30 4018 H 387.088 1.69305 -4.62165 0
M  V30 4019 N 388.74 1.54641 0.303973 0
M  V30 4020 C 389.986 1.74969 1.03718 0
M  V30 4021 C 390.341 0.527461 1.85029 0
M  V30 4022 O 389.634 -0.480143 1.85486 0
M  V30 4023 C 389.828 2.97753 1.97681 0
M  V30 4024 C 389.657 4.318 1.25613 0
M  V30 4025 C 388.427 4.95616 0.984518 0
M  V30 4026 C 390.625 5.10021 0.662081 0
M  V30 4027 N 388.607 6.13455 0.233794 0
M  V30 4028 C 389.978 6.19984 0.0439736 0
M  V30 4029 C 392.033 4.94663 0.566835 0
M  V30 4030 C 390.736 7.16264 -0.66016 0
M  V30 4031 C 392.762 5.91271 -0.123637 0
M  V30 4032 C 392.124 7.00601 -0.730608 0
M  V30 4033 H 388.223 0.692873 0.362562 0
M  V30 4034 H 390.807 1.92116 0.316135 0
M  V30 4035 H 388.978 2.82036 2.6704 0
M  V30 4036 H 390.71 3.06621 2.64132 0
M  V30 4037 H 387.465 4.55921 1.28191 0
M  V30 4038 H 387.889 6.76879 -0.127996 0
M  V30 4039 H 392.531 4.10267 1.02181 0
M  V30 4040 H 390.249 8.00204 -1.12691 0
M  V30 4041 H 393.835 5.81466 -0.197236 0
M  V30 4042 H 392.715 7.7407 -1.2564 0
M  V30 4043 N 390.218 -0.567019 1.47046 0
M  V30 4044 C 391.128 -1.70247 1.6141 0
M  V30 4045 C 392.144 -1.66746 0.497157 0
M  V30 4046 O 393.32 -1.86371 0.763389 0
M  V30 4047 C 390.385 -3.06756 1.61561 0
M  V30 4048 C 389.446 -3.21399 2.84607 0
M  V30 4049 C 388.679 -4.51396 2.84741 0
M  V30 4050 O 388.902 -5.36255 1.94388 0
M  V30 4051 O 387.836 -4.69621 3.76483 0
M  V30 4052 H 391.662 -1.61073 2.57467 0
M  V30 4053 H 389.247 -0.735894 1.30019 0
M  V30 4054 H 391.129 -3.8801 1.64396 0
M  V30 4055 H 389.804 -3.16333 0.686684 0
M  V30 4056 H 388.711 -2.39579 2.8732 0
M  V30 4057 H 390.044 -3.16721 3.76761 0
M  V30 4058 N 391.696 -1.35014 -0.812953 0
M  V30 4059 C 392.921 -1.31187 -1.60639 0
M  V30 4060 C 393.346 0.109382 -1.87782 0
M  V30 4061 O 392.704 1.07424 -1.46047 0
M  V30 4062 C 392.752 -2.11809 -2.91838 0
M  V30 4063 O 391.856 -1.49444 -3.8437 0
M  V30 4064 H 391.197 -0.450084 -0.488181 0
M  V30 4065 H 393.727 -1.77963 -1.00947 0
M  V30 4066 H 393.737 -2.23531 -3.41318 0
M  V30 4067 H 392.412 -3.15137 -2.71407 0
M  V30 4068 H 390.989 -1.46524 -3.42907 0
M  V30 4069 N 393.175 1.03435 -1.18907 0
M  V30 4070 C 394.123 2.13703 -0.918353 0
M  V30 4071 C 395.117 1.68947 0.123767 0
M  V30 4072 O 396.323 1.79983 -0.0249701 0
M  V30 4073 H 392.698 0.698112 -0.279542 0
M  V30 4074 H 394.669 2.33731 -1.85506 0
M  V30 4075 C 393.418 3.44542 -0.467532 0
M  V30 4076 H 392.741 3.79394 -1.26095 0
M  V30 4077 H 394.181 4.22812 -0.317164 0
M  V30 4078 C 392.64 3.26829 0.817588 0
M  V30 4079 O 393.17 3.54975 1.88031 0
M  V30 4080 N 391.376 2.80139 0.772677 0
M  V30 4081 H 390.923 2.57434 -0.0923883 0
M  V30 4082 H 390.881 2.68668 1.63294 0
M  V30 4083 N 394.653 0.992116 1.22453 0
M  V30 4084 C 395.901 0.666215 1.90804 0
M  V30 4085 C 396.222 -0.804152 1.77647 0
M  V30 4086 O 395.492 -1.57629 1.16318 0
M  V30 4087 H 394.072 0.243423 0.706225 0
M  V30 4088 H 396.734 1.25845 1.48825 0
M  V30 4089 H 395.83 0.928069 2.97982 0
M  V30 4090 N 396.131 -1.37776 0.765217 0
M  V30 4091 C 397.063 -2.28958 0.105361 0
M  V30 4092 C 398.076 -1.48316 -0.67128 0
M  V30 4093 O 399.265 -1.71046 -0.51045 0
M  V30 4094 C 396.365 -3.27421 -0.874569 0
M  V30 4095 C 395.538 -4.37132 -0.153123 0
M  V30 4096 C 394.597 -5.1571 -1.04547 0
M  V30 4097 O 393.623 -5.66896 -0.511672 0
M  V30 4098 N 394.825 -5.29808 -2.37243 0
M  V30 4099 H 397.59 -2.86227 0.888495 0
M  V30 4100 H 395.151 -1.49682 0.617 0
M  V30 4101 H 397.143 -3.7687 -1.47483 0
M  V30 4102 H 395.713 -2.70967 -1.55871 0
M  V30 4103 H 394.933 -3.89166 0.627975 0
M  V30 4104 H 396.221 -5.07625 0.345643 0
M  V30 4105 H 395.619 -4.89793 -2.83054 0
M  V30 4106 H 394.176 -5.82589 -2.9229 0
M  V30 4107 N 397.609 -0.515225 -1.4894 0
M  V30 4108 C 399.02 -0.0710067 -1.86565 0
M  V30 4109 C 399.371 1.34733 -1.42623 0
M  V30 4110 O 398.496 2.00653 -0.810379 0
M  V30 4111 C 399.091 -0.122083 -3.3858 0
M  V30 4112 C 397.65 0.266863 -3.75453 0
M  V30 4113 C 396.797 -0.488376 -2.72966 0
M  V30 4114 H 399.748 -0.727266 -1.41055 0
M  V30 4115 H 399.769 0.669818 -3.74558 0
M  V30 4116 H 399.281 -1.15448 -3.70531 0
M  V30 4117 H 397.382 1.30196 -3.49113 0
M  V30 4118 H 397.495 -0.0624811 -4.79059 0
M  V30 4119 H 395.859 0.0635622 -2.54621 0
M  V30 4120 H 396.642 -1.52113 -3.07761 0
M  V30 4121 N 399.087 1.5561 -0.249682 0
M  V30 4122 C 399.997 2.25143 0.659375 0
M  V30 4123 C 401.013 1.2685 1.19101 0
M  V30 4124 O 402.189 1.59732 1.22669 0
M  V30 4125 C 399.254 2.93945 1.8384 0
M  V30 4126 C 398.315 4.07655 1.34596 0
M  V30 4127 C 397.548 4.73167 2.46878 0
M  V30 4128 O 397.771 4.37768 3.65671 0
M  V30 4129 O 396.705 5.61623 2.16478 0
M  V30 4130 H 400.531 3.03545 0.0968698 0
M  V30 4131 H 398.116 1.49389 -0.018074 0
M  V30 4132 H 399.998 3.37271 2.52638 0
M  V30 4133 H 398.673 2.18481 2.38847 0
M  V30 4134 H 397.58 3.68839 0.625174 0
M  V30 4135 H 398.913 4.84946 0.841941 0
M  V30 4136 N 400.565 -0.0233959 1.57583 0
M  V30 4137 C 401.513 -1.04063 2.08023 0
M  V30 4138 C 402.507 -1.37084 0.995204 0
M  V30 4139 O 403.713 -1.35923 1.18004 0
M  V30 4140 H 400.088 -0.353144 0.663922 0
M  V30 4141 H 402.059 -0.589453 2.9252 0
M  V30 4142 C 400.808 -2.33123 2.57971 0
M  V30 4143 H 400.131 -2.08577 3.4108 0
M  V30 4144 H 401.571 -3.02632 2.96967 0
M  V30 4145 C 400.03 -3.02483 1.48342 0
M  V30 4146 O 400.56 -3.92541 0.852898 0
M  V30 4147 N 398.766 -2.63909 1.21658 0
M  V30 4148 H 398.313 -1.90758 1.73116 0
M  V30 4149 H 398.271 -3.10633 0.485218 0
M  V30 4150 N 402.043 -1.548 -0.295768 0
M  V30 4151 C 402.991 -1.86874 -1.38495 0
M  V30 4152 C 403.985 -0.742938 -1.52239 0
M  V30 4153 O 405.191 -0.926999 -1.54294 0
M  V30 4154 H 401.566 -0.592786 -0.462719 0
M  V30 4155 H 403.537 -2.77904 -1.08682 0
M  V30 4156 C 402.286 -2.13732 -2.74252 0
M  V30 4157 H 401.609 -2.99835 -2.64459 0
M  V30 4158 H 403.049 -2.4011 -3.49461 0
M  V30 4159 C 401.508 -0.937539 -3.23592 0
M  V30 4160 O 402.038 -0.160665 -4.01379 0
M  V30 4161 N 400.244 -0.741478 -2.80981 0
M  V30 4162 H 399.791 -1.37489 -2.1784 0
M  V30 4163 H 399.749 0.0597103 -3.14343 0
M  V30 4164 N 403.521 0.559213 -1.47345 0
M  V30 4165 C 404.751 1.33999 -1.57251 0
M  V30 4166 C 405.159 1.87905 -0.220978 0
M  V30 4167 O 404.502 1.65577 0.795617 0
M  V30 4168 C 404.564 2.54798 -2.53611 0
M  V30 4169 C 404.228 2.22192 -3.99349 0
M  V30 4170 C 405.225 1.79607 -4.87891 0
M  V30 4171 C 402.91 2.33613 -4.44669 0
M  V30 4172 C 404.904 1.48868 -6.19772 0
M  V30 4173 C 402.591 2.02487 -5.76578 0
M  V30 4174 C 403.589 1.60183 -6.63951 0
M  V30 4175 O 403.277 1.29451 -7.93409 0
M  V30 4176 H 403.009 0.414858 -0.533731 0
M  V30 4177 H 405.563 0.684465 -1.9366 0
M  V30 4178 H 403.793 3.23235 -2.12265 0
M  V30 4179 H 405.482 3.16873 -2.53666 0
M  V30 4180 H 406.248 1.70278 -4.54126 0
M  V30 4181 H 402.127 2.65501 -3.76869 0
M  V30 4182 H 405.671 1.15775 -6.87926 0
M  V30 4183 H 401.568 2.11448 -6.09885 0
M  V30 4184 H 402.336 1.43098 -8.05894 0
M  V30 4185 N 404.999 1.35443 0.805782 0
M  V30 4186 C 405.946 1.28431 1.91766 0
M  V30 4187 C 406.916 0.156102 1.65365 0
M  V30 4188 O 408.101 0.339936 1.87747 0
M  V30 4189 C 405.241 1.06301 3.2832 0
M  V30 4190 C 404.354 2.2805 3.66902 0
M  V30 4191 C 403.489 1.99064 4.92491 0
M  V30 4192 C 402.528 3.16863 5.23703 0
M  V30 4193 N 401.665 2.87647 6.40471 0
M  V30 4194 H 406.505 2.23511 1.97096 0
M  V30 4195 H 404.042 1.11105 0.964054 0
M  V30 4196 H 406 0.915012 4.07042 0
M  V30 4197 H 404.63 0.148822 3.22457 0
M  V30 4198 H 403.682 2.53711 2.83434 0
M  V30 4199 H 404.994 3.1601 3.85927 0
M  V30 4200 H 404.148 1.81099 5.7904 0
M  V30 4201 H 402.887 1.0839 4.75503 0
M  V30 4202 H 401.892 3.35404 4.35642 0
M  V30 4203 H 403.117 4.08339 5.4262 0
M  V30 4204 H 401.063 1.99568 6.24907 0
M  V30 4205 H 400.98 3.69141 6.59751 0
M  V30 4206 H 402.248 2.73226 7.30047 0
M  V30 4207 N 406.477 -1.02803 1.19454 0
M  V30 4208 C 407.705 -1.79841 1.02297 0
M  V30 4209 C 408.12 -1.83879 -0.428259 0
M  V30 4210 O 407.477 -1.28345 -1.29745 0
M  V30 4211 C 407.528 -3.24852 1.58598 0
M  V30 4212 O 407.249 -3.21097 2.98041 0
M  V30 4213 C 408.75 -4.18485 1.46236 0
M  V30 4214 H 405.97 -0.565936 0.360496 0
M  V30 4215 H 408.514 -1.2948 1.58288 0
M  V30 4216 H 406.669 -3.72401 1.06753 0
M  V30 4217 H 407.083 -4.12033 3.24545 0
M  V30 4218 H 408.557 -5.18121 1.90407 0
M  V30 4219 H 409.034 -4.37254 0.41301 0
M  V30 4220 H 409.64 -3.76811 1.97215 0
M  V30 4221 N 407.956 -0.998596 -1.21925 0
M  V30 4222 C 409.184 -0.696286 -1.94832 0
M  V30 4223 C 409.599 0.740032 -1.73692 0
M  V30 4224 O 408.956 1.5 -1.03953 0
M  V30 4225 C 409.007 -0.999833 -3.47398 0
M  V30 4226 O 408.728 -2.37972 -3.67833 0
M  V30 4227 C 410.229 -0.716025 -4.37479 0
M  V30 4228 H 407.449 -0.257111 -0.619786 0
M  V30 4229 H 409.993 -1.33491 -1.54921 0
M  V30 4230 H 408.148 -0.406918 -3.85257 0
M  V30 4231 H 408.562 -2.48338 -4.61983 0
M  V30 4232 H 410.036 -0.978642 -5.43256 0
M  V30 4233 H 410.513 0.349968 -4.37803 0
M  V30 4234 H 411.119 -1.29025 -4.05256 0
M  V30 4235 N 409.434 1.37368 -0.772513 0
M  V30 4236 C 410.845 1.8231 -0.402493 0
M  V30 4237 C 411.196 1.6436 1.07146 0
M  V30 4238 O 410.321 1.15514 1.82991 0
M  V30 4239 C 410.916 3.30979 -0.723776 0
M  V30 4240 C 409.475 3.74195 -0.406802 0
M  V30 4241 C 408.622 2.59885 -0.967218 0
M  V30 4242 H 411.573 1.25829 -0.967099 0
M  V30 4243 H 411.594 3.80499 -0.00870832 0
M  V30 4244 H 411.106 3.44011 -1.7966 0
M  V30 4245 H 409.207 3.66732 0.658673 0
M  V30 4246 H 409.32 4.7027 -0.915588 0
M  V30 4247 H 407.684 2.51674 -0.391416 0
M  V30 4248 H 408.467 2.7571 -2.04546 0
M  V30 4249 N 410.912 0.523116 1.48665 0
M  V30 4250 C 412.323 0.0808997 1.86525 0
M  V30 4251 C 412.674 -1.33975 1.43336 0
M  V30 4252 O 411.799 -2.00221 0.821009 0
M  V30 4253 C 412.394 0.140037 3.3851 0
M  V30 4254 C 410.953 -0.246948 3.75589 0
M  V30 4255 C 410.1 0.502845 2.72703 0
M  V30 4256 H 413.051 0.734736 1.40667 0
M  V30 4257 H 413.072 -0.649945 3.74908 0
M  V30 4258 H 412.584 1.17412 3.69914 0
M  V30 4259 H 410.685 -1.28343 3.49798 0
M  V30 4260 H 410.798 0.0878859 4.79019 0
M  V30 4261 H 409.162 -0.0500581 2.54651 0
M  V30 4262 H 409.945 1.53743 3.0695 0
M  V30 4263 N 412.39 -1.55475 0.257931 0
M  V30 4264 C 413.636 -1.99502 -0.364266 0
M  V30 4265 C 413.969 -1.146 -1.56782 0
M  V30 4266 O 413.244 -0.211968 -1.93342 0
M  V30 4267 C 413.527 -3.51917 -0.763333 0
M  V30 4268 C 413.38 -4.4758 0.446371 0
M  V30 4269 C 414.699 -4.09742 -1.60623 0
M  V30 4270 H 411.818 -0.725277 -0.130929 0
M  V30 4271 H 414.46 -1.8653 0.361446 0
M  V30 4272 H 412.61 -3.63101 -1.38166 0
M  V30 4273 H 414.282 -4.48362 1.08487 0
M  V30 4274 H 412.525 -4.19947 1.08753 0
M  V30 4275 H 413.196 -5.51862 0.123645 0
M  V30 4276 H 415.672 -4.01727 -1.08418 0
M  V30 4277 H 414.548 -5.16631 -1.85429 0
M  V30 4278 H 414.809 -3.58889 -2.58169 0
M  V30 4279 N 413.868 0.0150385 -1.57593 0
M  V30 4280 C 414.798 1.01047 -2.10503 0
M  V30 4281 C 415.779 1.36816 -1.01071 0
M  V30 4282 O 416.964 1.45455 -1.28672 0
M  V30 4283 C 414.094 2.30708 -2.59598 0
M  V30 4284 C 413.048 2.09142 -3.73421 0
M  V30 4285 C 412.374 3.44685 -4.08774 0
M  V30 4286 C 413.674 1.46619 -5.01298 0
M  V30 4287 H 415.368 0.569978 -2.93925 0
M  V30 4288 H 412.914 0.272724 -1.41394 0
M  V30 4289 H 414.867 3.00687 -2.95238 0
M  V30 4290 H 413.591 2.76843 -1.73279 0
M  V30 4291 H 412.25 1.41592 -3.38153 0
M  V30 4292 H 411.898 3.88495 -3.195 0
M  V30 4293 H 411.598 3.31077 -4.8545 0
M  V30 4294 H 413.122 4.16004 -4.4696 0
M  V30 4295 H 414.536 2.06535 -5.34805 0
M  V30 4296 H 412.933 1.43544 -5.82679 0
M  V30 4297 H 414.003 0.433611 -4.82957 0
M  V30 4298 N 415.346 1.54954 0.287554 0
M  V30 4299 C 416.623 1.65569 1.04146 0
M  V30 4300 C 417.003 0.512672 2.0478 0
M  V30 4301 O 416.351 -0.489038 2.23205 0
M  V30 4302 C 416.561 3.04163 1.71131 0
M  V30 4303 C 417.909 3.61429 2.22832 0
M  V30 4304 O 418.933 3.06702 1.81141 0
M  V30 4305 O 417.792 4.57281 2.9926 0
M  V30 4306 H 414.886 0.671881 0.482188 0
M  V30 4307 H 417.432 1.67297 0.28457 0
M  V30 4308 H 416.204 3.78796 0.981303 0
M  V30 4309 H 415.827 3.06271 2.53543 0
M  V30 4310 N 416.824 -0.551391 1.4764 0
M  V30 4311 C 418.049 -1.33837 1.58437 0
M  V30 4312 C 418.474 -1.866 0.237063 0
M  V30 4313 O 417.832 -1.6328 -0.787994 0
M  V30 4314 C 417.88 -2.48014 2.61766 0
M  V30 4315 O 416.984 -3.50419 2.1744 0
M  V30 4316 H 416.325 -0.397299 0.532024 0
M  V30 4317 H 418.855 -0.665759 1.93465 0
M  V30 4318 H 418.865 -2.94503 2.82369 0
M  V30 4319 H 417.54 -2.08969 3.5959 0
M  V30 4320 H 416.117 -3.10196 2.06961 0
M  V30 4321 N 418.302 -1.35869 -0.798587 0
M  V30 4322 C 419.579 -1.20145 -1.54352 0
M  V30 4323 C 419.959 0.216161 -2.0999 0
M  V30 4324 O 419.307 1.22068 -1.93162 0
M  V30 4325 C 419.517 -2.27602 -2.64572 0
M  V30 4326 C 420.865 -2.63811 -3.32699 0
M  V30 4327 O 421.889 -2.26576 -2.74849 0
M  V30 4328 O 420.748 -3.27866 -4.37226 0
M  V30 4329 H 417.842 -0.467248 -0.682355 0
M  V30 4330 H 420.388 -1.47574 -0.837859 0
M  V30 4331 H 419.16 -3.2265 -2.21388 0
M  V30 4332 H 418.783 -2.01488 -3.42766 0
M  V30 4333 N 419.78 1.02168 -1.19998 0
M  V30 4334 C 421.028 1.75338 -1.00504 0
M  V30 4335 C 421.349 1.89387 0.464506 0
M  V30 4336 O 420.619 1.43268 1.33608 0
M  V30 4337 H 419.199 0.649564 -0.368885 0
M  V30 4338 H 421.861 1.23205 -1.51018 0
M  V30 4339 H 420.957 2.75892 -1.45912 0
M  V30 4340 N 421.258 1.00505 1.21394 0
M  V30 4341 C 422.483 0.706367 1.95001 0
M  V30 4342 C 422.908 -0.72463 1.73582 0
M  V30 4343 O 422.266 -1.49702 1.0227 0
M  V30 4344 C 422.314 1.03299 3.45487 0
M  V30 4345 O 421.418 0.138275 4.12168 0
M  V30 4346 H 420.759 0.263175 0.609619 0
M  V30 4347 H 423.289 1.34531 1.54151 0
M  V30 4348 H 423.299 0.979872 3.96059 0
M  V30 4349 H 421.974 2.07567 3.60401 0
M  V30 4350 H 420.551 0.247928 3.72075 0
M  V30 4351 N 422.737 -1.36956 0.779787 0
M  V30 4352 C 423.984 -1.99491 0.347766 0
M  V30 4353 C 424.312 -1.61898 -1.07793 0
M  V30 4354 O 423.567 -0.86071 -1.75756 0
M  V30 4355 C 423.866 -3.54585 0.447686 0
M  V30 4356 C 423.532 -4.1197 1.83279 0
M  V30 4357 C 422.194 -4.27356 2.2118 0
M  V30 4358 C 424.546 -4.43354 2.74019 0
M  V30 4359 C 421.874 -4.71432 3.4924 0
M  V30 4360 C 424.226 -4.88858 4.01497 0
M  V30 4361 C 422.89 -5.0245 4.39432 0
M  V30 4362 H 422.16 -0.729991 0.127257 0
M  V30 4363 H 424.807 -1.63599 0.995376 0
M  V30 4364 H 423.112 -3.90773 -0.283447 0
M  V30 4365 H 424.809 -4.00888 0.0945948 0
M  V30 4366 H 421.399 -4.00428 1.52825 0
M  V30 4367 H 425.583 -4.31045 2.45995 0
M  V30 4368 H 420.839 -4.80141 3.78516 0
M  V30 4369 H 425.013 -5.12108 4.71931 0
M  V30 4370 H 422.64 -5.36362 5.38721 0
M  V30 4371 N 424.215 -0.530993 -1.48385 0
M  V30 4372 C 425.462 0.0027373 -2.025 0
M  V30 4373 C 425.79 1.34186 -1.40799 0
M  V30 4374 O 425.045 1.88 -0.543544 0
M  V30 4375 C 425.344 0.172742 -3.56982 0
M  V30 4376 C 425.01 -1.09215 -4.37473 0
M  V30 4377 C 423.672 -1.43881 -4.59186 0
M  V30 4378 C 426.024 -1.93153 -4.84088 0
M  V30 4379 C 423.352 -2.62381 -5.2476 0
M  V30 4380 C 425.704 -3.10833 -5.50968 0
M  V30 4381 C 424.368 -3.45843 -5.70919 0
M  V30 4382 H 423.638 0.00100165 -0.740999 0
M  V30 4383 H 426.285 -0.697219 -1.78357 0
M  V30 4384 H 424.59 0.955473 -3.79971 0
M  V30 4385 H 426.287 0.600642 -3.96476 0
M  V30 4386 H 422.877 -0.812177 -4.20834 0
M  V30 4387 H 427.061 -1.67683 -4.67115 0
M  V30 4388 H 422.317 -2.89707 -5.38405 0
M  V30 4389 H 426.491 -3.7618 -5.86056 0
M  V30 4390 H 424.118 -4.37764 -6.21503 0
M  V30 4391 N 425.693 1.55336 -0.266172 0
M  V30 4392 C 426.623 2.25146 0.618981 0
M  V30 4393 C 427.604 1.23845 1.16604 0
M  V30 4394 O 428.789 1.52544 1.20183 0
M  V30 4395 C 425.919 2.96572 1.80728 0
M  V30 4396 C 424.873 4.04726 1.39215 0
M  V30 4397 C 424.199 4.63678 2.66283 0
M  V30 4398 C 425.499 5.19407 0.548942 0
M  V30 4399 H 427.193 2.99377 0.0368116 0
M  V30 4400 H 424.739 1.43991 0.0162651 0
M  V30 4401 H 426.692 3.44116 2.43232 0
M  V30 4402 H 425.416 2.19861 2.41514 0
M  V30 4403 H 424.075 3.57979 0.790351 0
M  V30 4404 H 423.723 3.83646 3.25308 0
M  V30 4405 H 423.423 5.367 2.39222 0
M  V30 4406 H 424.947 5.13967 3.29651 0
M  V30 4407 H 426.361 5.63059 1.07876 0
M  V30 4408 H 424.758 5.98936 0.373593 0
M  V30 4409 H 425.828 4.8295 -0.434394 0
M  V30 4410 N 427.171 -0.0066808 1.57599 0
M  V30 4411 C 428.401 -0.703066 1.94269 0
M  V30 4412 C 428.809 -1.68206 0.866222 0
M  V30 4413 O 428.152 -1.82966 -0.164087 0
M  V30 4414 C 428.214 -1.49616 3.26887 0
M  V30 4415 C 427.878 -0.679494 4.5192 0
M  V30 4416 C 428.875 0.0299508 5.19891 0
M  V30 4417 C 426.56 -0.627433 4.98366 0
M  V30 4418 C 428.554 0.780514 6.32603 0
M  V30 4419 C 426.241 0.126861 6.10968 0
M  V30 4420 C 427.239 0.829574 6.77943 0
M  V30 4421 O 426.927 1.57157 7.88389 0
M  V30 4422 H 426.659 -0.201217 0.645359 0
M  V30 4423 H 429.213 0.0385326 2.05364 0
M  V30 4424 H 427.443 -2.28209 3.12182 0
M  V30 4425 H 429.132 -2.07726 3.48719 0
M  V30 4426 H 429.898 -0.00115963 4.85 0
M  V30 4427 H 425.777 -1.16392 4.46065 0
M  V30 4428 H 429.321 1.32954 6.84813 0
M  V30 4429 H 425.218 0.159815 6.45302 0
M  V30 4430 H 425.986 1.48758 8.04868 0
M  V30 4431 N 428.649 -1.55105 -0.279332 0
M  V30 4432 C 429.874 -1.7976 -1.03446 0
M  V30 4433 C 430.299 -0.565952 -1.79384 0
M  V30 4434 O 429.657 0.484259 -1.74713 0
M  V30 4435 C 429.705 -3.0179 -1.97371 0
M  V30 4436 O 428.809 -2.76432 -3.06038 0
M  V30 4437 H 428.15 -0.594334 -0.29608 0
M  V30 4438 H 430.68 -2.02235 -0.310165 0
M  V30 4439 H 430.69 -3.30351 -2.39441 0
M  V30 4440 H 429.365 -3.91085 -1.4151 0
M  V30 4441 H 427.942 -2.58949 -2.68328 0
M  V30 4442 N 430.127 0.543554 -1.4793 0
M  V30 4443 C 431.074 1.64942 -1.6144 0
M  V30 4444 C 432.044 1.59692 -0.456903 0
M  V30 4445 O 433.229 1.78321 -0.678688 0
M  V30 4446 C 430.369 3.03238 -1.64744 0
M  V30 4447 C 429.482 3.18823 -2.91506 0
M  V30 4448 C 428.617 4.47599 -2.86057 0
M  V30 4449 C 427.656 4.56664 -4.07584 0
M  V30 4450 N 426.793 5.76811 -4.00292 0
M  V30 4451 H 431.633 1.52733 -2.55884 0
M  V30 4452 H 429.17 0.7438 -1.2691 0
M  V30 4453 H 431.128 3.83339 -1.64641 0
M  V30 4454 H 429.758 3.1425 -0.738017 0
M  V30 4455 H 428.81 2.32064 -3.01414 0
M  V30 4456 H 430.122 3.21384 -3.81463 0
M  V30 4457 H 429.276 5.35975 -2.84281 0
M  V30 4458 H 428.015 4.47538 -1.93807 0
M  V30 4459 H 427.02 3.66697 -4.09651 0
M  V30 4460 H 428.245 4.58474 -5.00978 0
M  V30 4461 H 426.191 5.77673 -3.10853 0
M  V30 4462 H 426.108 5.80808 -4.8394 0
M  V30 4463 H 427.376 6.67512 -4.02553 0
M  V30 4464 N 431.605 1.3629 0.791371 0
M  V30 4465 C 432.535 1.33137 1.91825 0
M  V30 4466 C 433.516 0.203168 1.68882 0
M  V30 4467 O 434.701 0.400509 1.90025 0
M  V30 4468 C 431.831 1.11793 3.28816 0
M  V30 4469 C 430.785 2.21417 3.66277 0
M  V30 4470 C 430.111 1.85218 5.01596 0
M  V30 4471 C 431.411 3.63489 3.75064 0
M  V30 4472 H 433.105 2.2743 1.9472 0
M  V30 4473 H 430.651 1.09479 0.935437 0
M  V30 4474 H 432.604 1.08222 4.07266 0
M  V30 4475 H 431.328 0.139501 3.26302 0
M  V30 4476 H 429.987 2.2411 2.90121 0
M  V30 4477 H 429.635 0.859544 4.95602 0
M  V30 4478 H 429.335 2.58611 5.27631 0
M  V30 4479 H 430.859 1.832 5.82469 0
M  V30 4480 H 432.273 3.63034 4.43711 0
M  V30 4481 H 430.67 4.35771 4.12582 0
M  V30 4482 H 431.74 3.98536 2.76219 0
M  V30 4483 N 433.083 -1.0153 1.20538 0
M  V30 4484 C 434.311 -1.78746 1.04199 0
M  V30 4485 C 434.726 -1.84323 -0.408733 0
M  V30 4486 O 434.083 -1.29714 -1.28377 0
M  V30 4487 C 434.134 -3.23152 1.62035 0
M  V30 4488 O 433.855 -3.17918 3.0143 0
M  V30 4489 C 435.356 -4.16911 1.50666 0
M  V30 4490 H 432.576 -0.56208 0.366479 0
M  V30 4491 H 435.12 -1.27794 1.59653 0
M  V30 4492 H 433.275 -3.71248 1.10697 0
M  V30 4493 H 433.689 -4.08567 3.28897 0
M  V30 4494 H 435.163 -5.16072 1.95892 0
M  V30 4495 H 435.64 -4.36791 0.459363 0
M  V30 4496 H 436.246 -3.74698 2.01201 0
M  V30 4497 N 434.561 -1.01147 -1.20859 0
M  V30 4498 C 435.807 -0.698899 -1.90377 0
M  V30 4499 C 436.14 0.76904 -1.78324 0
M  V30 4500 O 435.415 1.55817 -1.16409 0
M  V30 4501 C 435.698 -1.12878 -3.41951 0
M  V30 4502 C 435.551 -2.65665 -3.62963 0
M  V30 4503 C 436.87 -0.696114 -4.3456 0
M  V30 4504 H 433.989 -0.255372 -0.691342 0
M  V30 4505 H 436.631 -1.25831 -1.42361 0
M  V30 4506 H 434.781 -0.652827 -3.82976 0
M  V30 4507 H 436.453 -3.21074 -3.31224 0
M  V30 4508 H 434.696 -3.06878 -3.06608 0
M  V30 4509 H 435.367 -2.90797 -4.69192 0
M  V30 4510 H 437.843 -1.10521 -4.01154 0
M  V30 4511 H 436.719 -1.025 -5.39245 0
M  V30 4512 H 436.98 0.402465 -4.40264 0
M  V30 4513 N 436.039 1.36541 -0.78704 0
M  V30 4514 C 437.316 1.9355 -0.282424 0
M  V30 4515 C 437.696 1.71919 1.22503 0
M  V30 4516 O 437.044 1.07677 2.01539 0
M  V30 4517 C 437.254 3.4246 -0.672462 0
M  V30 4518 C 438.602 4.19582 -0.650863 0
M  V30 4519 O 439.626 3.50889 -0.612789 0
M  V30 4520 O 438.485 5.42106 -0.691623 0
M  V30 4521 H 435.579 0.824091 -0.0693 0
M  V30 4522 H 438.125 1.45736 -0.869423 0
M  V30 4523 H 436.897 3.51851 -1.71221 0
M  V30 4524 H 436.52 3.97556 -0.0592211 0
M  V30 4525 N 437.518 0.538854 1.48102 0
M  V30 4526 C 438.465 -0.219042 2.29758 0
M  V30 4527 C 439.435 -0.925562 1.37922 0
M  V30 4528 O 440.62 -0.924855 1.66886 0
M  V30 4529 C 437.76 -1.25452 3.2149 0
M  V30 4530 C 436.873 -0.555943 4.28408 0
M  V30 4531 C 436.008 -1.57512 5.0731 0
M  V30 4532 C 435.047 -0.860498 6.06021 0
M  V30 4533 N 434.184 -1.82564 6.77949 0
M  V30 4534 H 439.024 0.483449 2.94052 0
M  V30 4535 H 436.561 0.250247 1.44956 0
M  V30 4536 H 438.519 -1.86727 3.7308 0
M  V30 4537 H 437.149 -1.92528 2.591 0
M  V30 4538 H 436.201 0.170938 3.80016 0
M  V30 4539 H 437.513 0.00474616 4.988 0
M  V30 4540 H 436.667 -2.26191 5.62959 0
M  V30 4541 H 435.406 -2.16972 4.36778 0
M  V30 4542 H 434.411 -0.159686 5.49568 0
M  V30 4543 H 435.636 -0.271897 6.78555 0
M  V30 4544 H 433.582 -2.40915 6.10161 0
M  V30 4545 H 433.499 -1.31662 7.44447 0
M  V30 4546 H 434.767 -2.50414 7.38182 0
M  V30 4547 N 438.996 -1.55193 0.274407 0
M  V30 4548 C 440.221 -2.04446 -0.348824 0
M  V30 4549 C 440.646 -1.15149 -1.48735 0
M  V30 4550 O 440.004 -0.149952 -1.80679 0
M  V30 4551 C 440.052 -3.51431 -0.808009 0
M  V30 4552 O 439.156 -3.65225 -1.91531 0
M  V30 4553 H 438.497 -0.66006 -0.0722276 0
M  V30 4554 H 441.027 -2.00481 0.408498 0
M  V30 4555 H 441.037 -3.92781 -1.10395 0
M  V30 4556 H 439.712 -4.15892 0.0249865 0
M  V30 4557 H 438.289 -3.35778 -1.62196 0
M  V30 4558 N 440.474 -0.00167713 -1.576 0
M  V30 4559 C 441.89 0.354422 -1.55615 0
M  V30 4560 C 442.09 1.74679 -1.00447 0
M  V30 4561 O 441.146 2.4428 -0.639022 0
M  V30 4562 C 442.459 0.22812 -2.99833 0
M  V30 4563 C 444.007 0.302934 -3.11531 0
M  V30 4564 C 444.482 0.205737 -4.57538 0
M  V30 4565 N 445.973 0.263584 -4.62449 0
M  V30 4566 C 446.708 0.211742 -5.73009 0
M  V30 4567 N 446.204 0.110399 -6.92712 0
M  V30 4568 N 447.997 0.263729 -5.61481 0
M  V30 4569 H 440.148 -0.912498 -1.918 0
M  V30 4570 H 442.411 -0.349928 -0.881053 0
M  V30 4571 H 442.117 -0.729934 -3.44042 0
M  V30 4572 H 441.991 1.00951 -3.6344 0
M  V30 4573 H 444.378 1.25143 -2.67251 0
M  V30 4574 H 444.459 -0.508357 -2.50698 0
M  V30 4575 H 444.103 -0.739225 -5.02492 0
M  V30 4576 H 444.033 1.03554 -5.16318 0
M  V30 4577 H 446.524 0.343173 -3.76339 0
M  V30 4578 H 446.837 0.0767828 -7.72762 0
M  V30 4579 H 445.182 0.0760025 -6.94958 0
M  V30 4580 H 448.373 0.34111 -4.66855 0
M  V30 4581 H 448.546 0.219862 -6.47627 0
M  V30 4582 N 441.952 1.55251 0.271103 0
M  V30 4583 C 443.198 1.7713 0.999832 0
M  V30 4584 C 443.553 0.56659 1.83868 0
M  V30 4585 O 442.846 -0.44069 1.86463 0
M  V30 4586 C 443.04 3.01879 1.91321 0
M  V30 4587 C 442.869 4.34368 1.16426 0
M  V30 4588 C 441.639 4.97593 0.879169 0
M  V30 4589 C 443.837 5.1131 0.553749 0
M  V30 4590 N 441.819 6.13813 0.103618 0
M  V30 4591 C 443.19 6.19938 -0.0875442 0
M  V30 4592 C 445.245 4.95754 0.461782 0
M  V30 4593 C 443.948 7.14703 -0.811942 0
M  V30 4594 C 445.974 5.90875 -0.249027 0
M  V30 4595 C 445.336 6.98893 -0.879051 0
M  V30 4596 H 441.435 0.700407 0.347784 0
M  V30 4597 H 444.019 1.92744 0.275314 0
M  V30 4598 H 442.19 2.87637 2.60997 0
M  V30 4599 H 443.922 3.12154 2.57569 0
M  V30 4600 H 440.677 4.58538 1.18491 0
M  V30 4601 H 441.101 6.76455 -0.271543 0
M  V30 4602 H 445.743 4.12342 0.934552 0
M  V30 4603 H 443.461 7.97634 -1.29639 0
M  V30 4604 H 447.047 5.80916 -0.320529 0
M  V30 4605 H 445.927 7.71231 -1.42031 0
M  V30 4606 N 443.43 -0.535701 1.48216 0
M  V30 4607 C 444.362 -1.65662 1.58394 0
M  V30 4608 C 445.375 -1.5591 0.468607 0
M  V30 4609 O 446.564 -1.62475 0.7392 0
M  V30 4610 C 443.664 -3.04276 1.4923 0
M  V30 4611 C 442.837 -3.39567 2.75705 0
M  V30 4612 C 441.896 -4.57436 2.60075 0
M  V30 4613 O 440.922 -4.60942 3.33948 0
M  V30 4614 N 442.124 -5.55259 1.69315 0
M  V30 4615 H 444.889 -1.5737 2.55058 0
M  V30 4616 H 442.45 -0.722845 1.44867 0
M  V30 4617 H 444.442 -3.80994 1.36477 0
M  V30 4618 H 443.012 -3.06677 0.605632 0
M  V30 4619 H 442.232 -2.52083 3.03064 0
M  V30 4620 H 443.52 -3.59929 3.59623 0
M  V30 4621 H 442.918 -5.552 1.08489 0
M  V30 4622 H 441.475 -6.31218 1.62504 0
M  V30 4623 N 444.908 -1.36708 -0.784132 0
M  V30 4624 C 445.84 -1.27333 -1.90575 0
M  V30 4625 C 446.853 -0.191706 -1.61667 0
M  V30 4626 O 448.042 -0.446854 -1.72816 0
M  V30 4627 C 445.142 -0.943177 -3.25511 0
M  V30 4628 C 444.315 -2.12776 -3.82158 0
M  V30 4629 C 443.374 -1.76983 -4.95544 0
M  V30 4630 O 442.4 -2.49134 -5.11782 0
M  V30 4631 N 443.602 -0.706624 -5.76183 0
M  V30 4632 H 446.367 -2.23974 -1.99138 0
M  V30 4633 H 443.928 -1.30171 -0.962656 0
M  V30 4634 H 445.92 -0.684799 -3.98864 0
M  V30 4635 H 444.49 -0.0657333 -3.12531 0
M  V30 4636 H 443.71 -2.54863 -3.0073 0
M  V30 4637 H 444.998 -2.91904 -4.16737 0
M  V30 4638 H 444.396 -0.107643 -5.65598 0
M  V30 4639 H 442.953 -0.50808 -6.49817 0
M  V30 4640 N 446.386 1.0089 -1.21074 0
M  V30 4641 C 447.634 1.74262 -1.02358 0
M  V30 4642 C 447.955 1.89869 0.444393 0
M  V30 4643 O 447.225 1.44677 1.32081 0
M  V30 4644 H 445.805 0.645615 -0.375754 0
M  V30 4645 H 448.467 1.21596 -1.52317 0
M  V30 4646 H 447.563 2.74328 -1.4883 0
M  V30 4647 N 447.864 1.01787 1.20321 0
M  V30 4648 C 448.812 0.58254 2.25187 0
M  V30 4649 C 449.806 -0.379359 1.65098 0
M  V30 4650 O 451.012 -0.249142 1.78267 0
M  V30 4651 H 447.387 0.170078 0.732514 0
M  V30 4652 H 449.358 1.47788 2.59232 0
M  V30 4653 C 448.107 -0.0620885 3.47645 0
M  V30 4654 H 447.43 0.669069 3.94162 0
M  V30 4655 H 448.87 -0.329784 4.22716 0
M  V30 4656 C 447.329 -1.3053 3.10586 0
M  V30 4657 O 447.859 -2.39848 3.22236 0
M  V30 4658 N 446.065 -1.18988 2.65123 0
M  V30 4659 H 445.612 -0.300341 2.55843 0
M  V30 4660 H 445.57 -2.02267 2.40698 0
M  V30 4661 N 449.342 -1.36122 0.79427 0
M  V30 4662 C 450.588 -1.99406 0.369452 0
M  V30 4663 C 450.921 -1.62886 -1.05743 0
M  V30 4664 O 450.196 -0.886053 -1.73145 0
M  V30 4665 C 450.479 -3.56046 0.538833 0
M  V30 4666 C 450.332 -4.02404 2.00976 0
M  V30 4667 C 451.651 -4.40079 -0.0431359 0
M  V30 4668 H 448.77 -0.724397 0.135712 0
M  V30 4669 H 451.412 -1.61461 1.00151 0
M  V30 4670 H 449.562 -3.885 0.000771004 0
M  V30 4671 H 451.234 -3.80415 2.60926 0
M  V30 4672 H 449.477 -3.53765 2.51063 0
M  V30 4673 H 450.148 -5.11344 2.07922 0
M  V30 4674 H 452.624 -4.14013 0.416228 0
M  V30 4675 H 451.5 -5.48799 0.105374 0
M  V30 4676 H 451.761 -4.27264 -1.13571 0
M  V30 4677 N 450.82 -0.546701 -1.47814 0
M  V30 4678 C 452.067 -0.0187407 -2.02491 0
M  V30 4679 C 452.395 1.32685 -1.42215 0
M  V30 4680 O 451.65 1.87413 -0.563454 0
M  V30 4681 C 451.949 0.134869 -3.57145 0
M  V30 4682 C 451.615 -1.13849 -4.3629 0
M  V30 4683 C 450.277 -1.48743 -4.57634 0
M  V30 4684 C 452.629 -1.98277 -4.82012 0
M  V30 4685 C 449.957 -2.67932 -5.21948 0
M  V30 4686 C 452.309 -3.16659 -5.4764 0
M  V30 4687 C 450.973 -3.51879 -5.67219 0
M  V30 4688 H 450.243 -0.0068577 -0.740968 0
M  V30 4689 H 452.89 -0.716097 -1.77607 0
M  V30 4690 H 451.195 0.915118 -3.80963 0
M  V30 4691 H 452.892 0.558556 -3.97091 0
M  V30 4692 H 449.482 -0.856767 -4.19949 0
M  V30 4693 H 453.666 -1.72628 -4.6531 0
M  V30 4694 H 448.922 -2.95401 -5.35302 0
M  V30 4695 H 453.096 -3.82374 -5.82033 0
M  V30 4696 H 450.723 -4.44331 -6.16825 0
M  V30 4697 N 452.299 1.55045 -0.282633 0
M  V30 4698 C 453.524 2.04628 0.337977 0
M  V30 4699 C 453.949 1.15937 1.48123 0
M  V30 4700 O 453.307 0.159532 1.80597 0
M  V30 4701 C 453.355 3.51854 0.78936 0
M  V30 4702 O 452.459 3.66236 1.89592 0
M  V30 4703 H 451.8 0.660434 0.0687261 0
M  V30 4704 H 454.33 2.00261 -0.419124 0
M  V30 4705 H 454.34 3.93361 1.08311 0
M  V30 4706 H 453.015 4.15873 -0.0470419 0
M  V30 4707 H 451.592 3.36633 1.60413 0
M  V30 4708 N 453.777 0.010035 1.57597 0
M  V30 4709 C 455.017 -0.677084 1.9286 0
M  V30 4710 C 455.381 -1.70377 0.885192 0
M  V30 4711 O 456.582 -2.44199 1.12339 0
M  V30 4712 C 454.853 -1.29452 3.33132 0
M  V30 4713 S 456.412 -2.00537 3.90295 0
M  V30 4714 H 453.23 -0.223409 0.674989 0
M  V30 4715 H 455.832 0.0691289 1.95378 0
M  V30 4716 H 454.536 -0.534593 4.06903 0
M  V30 4717 H 454.067 -2.07845 3.34012 0
M  V30 4718 H 456.082 -3.28168 3.72183 0
M  V30 4719 N 455.255 -1.55392 -0.262866 0
M  V30 4720 C 456.48 -1.80847 -1.01533 0
M  V30 4721 C 456.905 -0.584946 -1.78774 0
M  V30 4722 O 456.263 0.465701 -1.75217 0
M  V30 4723 C 456.311 -3.03866 -1.94159 0
M  V30 4724 O 455.415 -2.79662 -3.03089 0
M  V30 4725 H 454.756 -0.597441 -0.289759 0
M  V30 4726 H 457.286 -2.02553 -0.288698 0
M  V30 4727 H 457.296 -3.32872 -2.35924 0
M  V30 4728 H 455.971 -3.92564 -1.37354 0
M  V30 4729 H 454.548 -2.61781 -2.65566 0
M  V30 4730 N 456.733 0.527833 -1.48498 0
M  V30 4731 C 457.979 1.28545 -1.56857 0
M  V30 4732 C 458.312 1.92678 -0.242651 0
M  V30 4733 O 457.587 1.79394 0.751545 0
M  V30 4734 C 457.87 2.37314 -2.70839 0
M  V30 4735 C 457.723 1.77858 -4.13142 0
M  V30 4736 C 459.042 3.39068 -2.80573 0
M  V30 4737 H 456.161 0.466006 -0.570971 0
M  V30 4738 H 458.803 0.587784 -1.8068 0
M  V30 4739 H 456.953 2.96821 -2.50658 0
M  V30 4740 H 458.625 1.22385 -4.44769 0
M  V30 4741 H 456.868 1.08383 -4.20042 0
M  V30 4742 H 457.539 2.56624 -4.88721 0
M  V30 4743 H 460.015 2.89518 -2.98862 0
M  V30 4744 H 458.891 4.12566 -3.6205 0
M  V30 4745 H 459.152 3.9975 -1.88818 0
M  V30 4746 N 458.211 1.37122 0.776871 0
M  V30 4747 C 459.144 1.26835 1.89705 0
M  V30 4748 C 460.122 0.14992 1.61907 0
M  V30 4749 O 461.306 0.323242 1.85708 0
M  V30 4750 C 458.433 0.95986 3.24814 0
M  V30 4751 C 457.479 2.09447 3.7153 0
M  V30 4752 S 458.312 3.71368 3.85806 0
M  V30 4753 C 459.468 3.42659 5.23771 0
M  V30 4754 H 459.701 2.21647 1.98141 0
M  V30 4755 H 457.234 1.22685 0.937433 0
M  V30 4756 H 459.192 0.788696 4.02852 0
M  V30 4757 H 457.853 0.0293137 3.14086 0
M  V30 4758 H 457.046 1.8335 4.69467 0
M  V30 4759 H 456.648 2.2255 3.00578 0
M  V30 4760 H 458.94 2.9733 6.0877 0
M  V30 4761 H 459.883 4.39905 5.54878 0
M  V30 4762 H 460.291 2.77708 4.91466 0
M  V30 4763 N 459.689 -1.00246 1.21608 0
M  V30 4764 C 460.639 -2.07492 0.945051 0
M  V30 4765 C 461.623 -1.60585 -0.100675 0
M  V30 4766 O 462.815 -1.76667 0.10859 0
M  V30 4767 C 459.944 -3.39425 0.514342 0
M  V30 4768 C 459.03 -3.92993 1.59428 0
M  V30 4769 N 459.421 -4.19898 2.81991 0
M  V30 4770 C 457.719 -4.21297 1.46374 0
M  V30 4771 C 458.42 -4.63297 3.51754 0
M  V30 4772 N 457.396 -4.66421 2.79199 0
M  V30 4773 H 461.198 -2.26222 1.87619 0
M  V30 4774 H 458.712 -1.18339 1.11219 0
M  V30 4775 H 460.709 -4.15808 0.301527 0
M  V30 4776 H 459.369 -3.22101 -0.410008 0
M  V30 4777 H 460.38 -4.08377 3.1851 0
M  V30 4778 H 457.057 -4.13095 0.604863 0
M  V30 4779 H 458.447 -4.92816 4.56708 0
M  V30 4780 N 461.167 -1.02423 -1.1978 0
M  V30 4781 C 462.077 -0.610919 -2.26506 0
M  V30 4782 C 463.093 0.355152 -1.70337 0
M  V30 4783 O 464.269 0.214195 -2.00258 0
M  V30 4784 C 461.334 0.0365921 -3.46681 0
M  V30 4785 C 460.395 -0.976389 -4.18049 0
M  V30 4786 C 459.628 -0.359683 -5.32487 0
M  V30 4787 O 459.851 0.838601 -5.64202 0
M  V30 4788 O 458.785 -1.08022 -5.92127 0
M  V30 4789 H 462.611 -1.49965 -2.64091 0
M  V30 4790 H 460.196 -0.794156 -1.26545 0
M  V30 4791 H 462.078 0.39786 -4.19518 0
M  V30 4792 H 460.753 0.899398 -3.10954 0
M  V30 4793 H 459.66 -1.38916 -3.47352 0
M  V30 4794 H 460.993 -1.80941 -4.57735 0
M  V30 4795 N 462.645 1.35699 -0.801477 0
M  V30 4796 C 463.608 2.28199 -0.213994 0
M  V30 4797 C 464.608 1.49359 0.595691 0
M  V30 4798 O 465.798 1.69186 0.414921 0
M  V30 4799 C 462.93 3.33587 0.702297 0
M  V30 4800 H 464.123 2.81666 -1.02976 0
M  V30 4801 H 461.676 1.45467 -0.571759 0
M  V30 4802 H 462.411 2.85297 1.54195 0
M  V30 4803 H 462.196 3.91906 0.123484 0
M  V30 4804 H 463.686 4.02638 1.10783 0
M  V30 4805 N 464.123 0.554532 1.47522 0
M  V30 4806 C 465.053 -0.182974 2.32782 0
M  V30 4807 C 466.034 -0.911377 1.43624 0
M  V30 4808 O 467.219 -0.892366 1.72483 0
M  V30 4809 C 464.349 -1.21513 3.25349 0
M  V30 4810 C 463.303 -0.603355 4.23726 0
M  V30 4811 C 462.629 -1.73995 5.05598 0
M  V30 4812 C 463.929 0.441121 5.20434 0
M  V30 4813 H 465.623 0.52882 2.94693 0
M  V30 4814 H 463.169 0.255759 1.41711 0
M  V30 4815 H 465.122 -1.73922 3.83835 0
M  V30 4816 H 463.846 -1.95683 2.61487 0
M  V30 4817 H 462.505 -0.10059 3.66462 0
M  V30 4818 H 462.153 -2.47063 4.38143 0
M  V30 4819 H 461.853 -1.3364 5.72201 0
M  V30 4820 H 463.377 -2.26735 5.66942 0
M  V30 4821 H 464.791 0.00319931 5.733 0
M  V30 4822 H 463.188 0.763402 5.95224 0
M  V30 4823 H 464.258 1.33799 4.66075 0
M  V30 4824 N 465.601 -1.54893 0.290851 0
M  V30 4825 C 466.551 -2.19838 -0.604599 0
M  V30 4826 C 467.535 -1.16805 -1.10659 0
M  V30 4827 O 468.727 -1.42562 -1.04905 0
M  V30 4828 C 465.856 -2.93497 -1.78086 0
M  V30 4829 C 464.942 -4.03835 -1.29531 0
M  V30 4830 N 465.333 -5.03047 -0.527024 0
M  V30 4831 C 463.631 -4.17192 -1.57693 0
M  V30 4832 C 464.332 -5.81074 -0.269728 0
M  V30 4833 N 463.308 -5.36966 -0.846651 0
M  V30 4834 H 467.11 -2.93898 -0.00995032 0
M  V30 4835 H 464.624 -1.62121 0.0951353 0
M  V30 4836 H 466.621 -3.38484 -2.43381 0
M  V30 4837 H 465.281 -2.2095 -2.37931 0
M  V30 4838 H 466.292 -5.17611 -0.172872 0
M  V30 4839 H 462.969 -3.55845 -2.18359 0
M  V30 4840 H 464.359 -6.71005 0.346643 0
M  V30 4841 N 467.08 -0.0183926 -1.57589 0
M  V30 4842 C 468.028 0.985111 -2.10709 0
M  V30 4843 C 469.022 1.34397 -1.0312 0
M  V30 4844 O 470.228 1.32746 -1.21567 0
M  V30 4845 H 466.603 0.335418 -0.673052 0
M  V30 4846 H 468.574 0.511689 -2.9398 0
M  V30 4847 C 467.323 2.26202 -2.64061 0
M  V30 4848 H 466.646 1.9946 -3.4649 0
M  V30 4849 H 468.086 2.94652 -3.04887 0
M  V30 4850 C 466.545 2.98444 -1.5631 0
M  V30 4851 O 467.075 3.90142 -0.956674 0
M  V30 4852 N 465.281 2.6059 -1.28612 0
M  V30 4853 H 464.828 1.86101 -1.78112 0
M  V30 4854 H 464.786 3.09238 -0.567406 0
M  V30 4855 N 468.558 1.5553 0.254621 0
M  V30 4856 C 469.508 1.86057 1.31783 0
M  V30 4857 C 470.492 0.720827 1.4385 0
M  V30 4858 O 471.684 0.982586 1.47222 0
M  V30 4859 C 468.813 2.15203 2.67475 0
M  V30 4860 C 467.899 3.35484 2.59444 0
M  V30 4861 N 468.29 4.54945 2.2104 0
M  V30 4862 C 466.588 3.38441 2.90472 0
M  V30 4863 C 467.289 5.3707 2.23453 0
M  V30 4864 N 466.265 4.75936 2.62652 0
M  V30 4865 H 470.067 2.75953 1.01129 0
M  V30 4866 H 467.581 1.55653 0.463255 0
M  V30 4867 H 469.578 2.35235 3.44195 0
M  V30 4868 H 468.238 1.26601 2.99002 0
M  V30 4869 H 469.249 4.8071 1.92712 0
M  V30 4870 H 465.926 2.60087 3.2659 0
M  V30 4871 H 467.316 6.42626 1.96166 0
M  V30 4872 N 470.036 -0.519951 1.48776 0
M  V30 4873 C 471.266 -1.29783 1.60748 0
M  V30 4874 C 471.674 -1.87253 0.27072 0
M  V30 4875 O 471.017 -1.67628 -0.751438 0
M  V30 4876 C 471.079 -2.47984 2.60277 0
M  V30 4877 C 470.743 -2.11526 4.051 0
M  V30 4878 C 471.74 -1.66608 4.92481 0
M  V30 4879 C 469.425 -2.21742 4.50706 0
M  V30 4880 C 471.419 -1.32384 6.23501 0
M  V30 4881 C 469.106 -1.87129 5.81744 0
M  V30 4882 C 470.104 -1.42523 6.67964 0
M  V30 4883 O 469.792 -1.0837 7.96562 0
M  V30 4884 H 469.524 -0.400562 0.544542 0
M  V30 4885 H 472.078 -0.632879 1.95407 0
M  V30 4886 H 470.308 -3.17493 2.2076 0
M  V30 4887 H 471.997 -3.10036 2.61978 0
M  V30 4888 H 472.763 -1.58178 4.58481 0
M  V30 4889 H 468.642 -2.55415 3.83776 0
M  V30 4890 H 472.186 -0.974949 6.90754 0
M  V30 4891 H 468.083 -1.95204 6.15277 0
M  V30 4892 H 468.851 -1.21681 8.09405 0
M  V30 4893 N 471.514 -1.37532 -0.769588 0
M  V30 4894 C 472.742 -1.36059 -1.55871 0
M  V30 4895 C 473.157 0.053544 -1.88724 0
M  V30 4896 O 472.514 1.01591 -1.5161 0
M  V30 4897 C 472.565 -2.20107 -2.86767 0
M  V30 4898 O 472.286 -3.56009 -2.55321 0
M  V30 4899 C 473.787 -2.26636 -3.80987 0
M  V30 4900 H 471.007 -0.465967 -0.482821 0
M  V30 4901 H 473.551 -1.80901 -0.953686 0
M  V30 4902 H 471.706 -1.78768 -3.43687 0
M  V30 4903 H 472.12 -4.0009 -3.39158 0
M  V30 4904 H 473.594 -2.89763 -4.69831 0
M  V30 4905 H 474.071 -1.2754 -4.20274 0
M  V30 4906 H 474.677 -2.68296 -3.29996 0
M  V30 4907 N 472.992 0.995999 -1.22138 0
M  V30 4908 C 473.924 2.08745 -0.946485 0
M  V30 4909 C 474.937 1.62633 0.0737356 0
M  V30 4910 O 476.126 1.77782 -0.159886 0
M  V30 4911 C 473.226 3.36516 -0.401305 0
M  V30 4912 C 472.399 4.11672 -1.47801 0
M  V30 4913 C 471.458 5.17728 -0.940461 0
M  V30 4914 O 470.484 5.45482 -1.62596 0
M  V30 4915 N 471.686 5.80005 0.239723 0
M  V30 4916 H 474.451 2.32908 -1.88611 0
M  V30 4917 H 472.012 1.16152 -1.12785 0
M  V30 4918 H 474.004 4.04691 -0.0270837 0
M  V30 4919 H 472.574 3.0944 0.443354 0
M  V30 4920 H 471.794 3.38171 -2.02568 0
M  V30 4921 H 473.082 4.58657 -2.20253 0
M  V30 4922 H 472.48 5.5982 0.813518 0
M  V30 4923 H 471.037 6.4943 0.555361 0
M  V30 4924 N 474.47 1.03057 1.19235 0
M  V30 4925 C 475.417 0.612832 2.22515 0
M  V30 4926 C 476.387 -0.374224 1.61829 0
M  V30 4927 O 477.572 -0.270501 1.88873 0
M  V30 4928 C 474.712 -0.028475 3.45088 0
M  V30 4929 C 473.825 1.00483 4.20151 0
M  V30 4930 C 472.96 0.333102 5.30155 0
M  V30 4931 C 471.999 1.3522 5.96977 0
M  V30 4932 N 471.136 0.70616 6.9854 0
M  V30 4933 H 475.976 1.49812 2.57605 0
M  V30 4934 H 473.513 0.749658 1.26564 0
M  V30 4935 H 475.471 -0.417548 4.15105 0
M  V30 4936 H 474.101 -0.877334 3.10649 0
M  V30 4937 H 473.153 1.51194 3.49062 0
M  V30 4938 H 474.465 1.77929 4.65986 0
M  V30 4939 H 473.619 -0.110725 6.06599 0
M  V30 4940 H 472.358 -0.473547 4.85396 0
M  V30 4941 H 471.363 1.80627 5.19282 0
M  V30 4942 H 472.588 2.16037 6.4382 0
M  V30 4943 H 470.534 -0.0803667 6.55951 0
M  V30 4944 H 470.451 1.41848 7.42573 0
M  V30 4945 H 471.719 0.286391 7.78974 0
M  V30 4946 N 475.948 -1.35272 0.808662 0
M  V30 4947 C 477.173 -2.03477 0.401475 0
M  V30 4948 C 477.598 -1.60537 -0.980279 0
M  V30 4949 O 476.956 -0.78304 -1.63518 0
M  V30 4950 C 477.004 -3.57181 0.495354 0
M  V30 4951 O 476.108 -4.09474 -0.490397 0
M  V30 4952 H 475.449 -0.642561 0.167366 0
M  V30 4953 H 477.979 -1.72824 1.09512 0
M  V30 4954 H 477.989 -4.06356 0.365912 0
M  V30 4955 H 476.664 -3.87784 1.5032 0
M  V30 4956 H 475.241 -3.71516 -0.321023 0
M  V30 4957 N 477.426 -0.562348 -1.47226 0
M  V30 4958 C 478.356 0.170627 -2.32876 0
M  V30 4959 C 479.337 0.903748 -1.44106 0
M  V30 4960 O 480.522 0.883206 -1.72954 0
M  V30 4961 C 477.652 1.19786 -3.25989 0
M  V30 4962 C 476.606 0.580875 -4.2404 0
M  V30 4963 C 475.932 1.71311 -5.06514 0
M  V30 4964 C 477.232 -0.468714 -5.20193 0
M  V30 4965 H 478.926 -0.544441 -2.94408 0
M  V30 4966 H 476.472 -0.263271 -1.41573 0
M  V30 4967 H 478.425 1.71884 -3.84752 0
M  V30 4968 H 477.149 1.94294 -2.62521 0
M  V30 4969 H 475.808 0.0811538 -3.6651 0
M  V30 4970 H 475.456 2.44736 -4.39447 0
M  V30 4971 H 475.156 1.30604 -5.72902 0
M  V30 4972 H 476.68 2.23725 -5.68137 0
M  V30 4973 H 478.094 -0.0336028 -5.7329 0
M  V30 4974 H 476.491 -0.794957 -5.94811 0
M  V30 4975 H 477.561 -1.36269 -4.65359 0
M  V30 4976 N 478.904 1.54736 -0.299062 0
M  V30 4977 C 480.129 2.04975 0.316254 0
M  V30 4978 C 480.554 1.17501 1.46885 0
M  V30 4979 O 479.912 0.178678 1.80417 0
M  V30 4980 C 479.96 3.52672 0.751997 0
M  V30 4981 O 479.064 3.68226 1.85697 0
M  V30 4982 H 478.405 0.661126 0.0617175 0
M  V30 4983 H 480.935 1.99805 -0.440341 0
M  V30 4984 H 480.945 3.94488 1.04133 0
M  V30 4985 H 479.62 4.158 -0.0911482 0
M  V30 4986 H 478.197 3.38316 1.56834 0
M  V30 4987 N 480.382 0.0267497 1.57577 0
M  V30 4988 C 481.312 -0.954308 2.13108 0
M  V30 4989 C 482.293 -1.34088 1.04663 0
M  V30 4990 O 483.478 -1.41992 1.32484 0
M  V30 4991 C 480.608 -2.23744 2.65624 0
M  V30 4992 C 479.562 -1.99168 3.78835 0
M  V30 4993 C 478.888 -3.33726 4.17769 0
M  V30 4994 C 480.188 -1.33277 5.0501 0
M  V30 4995 H 481.882 -0.491848 2.95332 0
M  V30 4996 H 479.428 -0.23514 1.42067 0
M  V30 4997 H 481.381 -2.92754 3.03106 0
M  V30 4998 H 480.105 -2.72151 1.80558 0
M  V30 4999 H 478.764 -1.32577 3.41788 0
M  V30 5000 H 478.412 -3.79888 3.29688 0
M  V30 5001 H 478.112 -3.18089 4.94058 0
M  V30 5002 H 479.636 -4.04008 4.57832 0
M  V30 5003 H 481.05 -1.92283 5.40093 0
M  V30 5004 H 479.447 -1.28045 5.8628 0
M  V30 5005 H 480.517 -0.305411 4.83937 0
M  V30 5006 N 481.861 -1.55662 -0.24637 0
M  V30 5007 C 483.086 -1.81914 -0.996093 0
M  V30 5008 C 483.511 -0.603875 -1.78143 0
M  V30 5009 O 482.869 0.447091 -1.75701 0
M  V30 5010 C 482.917 -3.05908 -1.90925 0
M  V30 5011 O 482.021 -2.82861 -3.00105 0
M  V30 5012 H 481.362 -0.600481 -0.283406 0
M  V30 5013 H 483.892 -2.02848 -0.267199 0
M  V30 5014 H 483.902 -3.35356 -2.3238 0
M  V30 5015 H 482.577 -3.93999 -1.33183 0
M  V30 5016 H 481.154 -2.64583 -2.62775 0
M  V30 5017 N 483.339 0.512053 -1.4905 0
M  V30 5018 C 484.75 1.09376 -1.51307 0
M  V30 5019 C 485.101 1.94 -0.292971 0
M  V30 5020 O 484.226 2.07965 0.598277 0
M  V30 5021 C 484.821 1.99031 -2.74176 0
M  V30 5022 C 483.38 2.52385 -2.79247 0
M  V30 5023 C 482.527 1.29749 -2.45073 0
M  V30 5024 H 485.478 0.296467 -1.55906 0
M  V30 5025 H 485.499 2.83569 -2.53711 0
M  V30 5026 H 485.011 1.37412 -3.62959 0
M  V30 5027 H 483.112 3.17673 -1.94716 0
M  V30 5028 H 483.225 2.90293 -3.81139 0
M  V30 5029 H 481.589 1.61912 -1.96612 0
M  V30 5030 H 482.372 0.698555 -3.36118 0
M  V30 5031 N 484.817 1.37938 0.762283 0
M  V30 5032 C 486.065 1.33404 1.51815 0
M  V30 5033 C 486.386 -0.0780975 1.94844 0
M  V30 5034 O 485.656 -1.02405 1.67003 0
M  V30 5035 H 484.236 0.490839 0.563104 0
M  V30 5036 H 486.898 1.72527 0.906669 0
M  V30 5037 H 485.994 1.97926 2.41313 0
M  V30 5038 N 486.295 -0.989507 1.22664 0
M  V30 5039 C 487.242 -2.08024 0.999733 0
M  V30 5040 C 488.212 -1.65909 -0.0797047 0
M  V30 5041 O 489.397 -1.90669 0.0705715 0
M  V30 5042 C 486.537 -3.40067 0.587234 0
M  V30 5043 C 485.65 -3.95505 1.73781 0
M  V30 5044 C 484.785 -5.15722 1.27297 0
M  V30 5045 C 483.824 -5.63305 2.39488 0
M  V30 5046 N 482.961 -6.74758 1.94026 0
M  V30 5047 H 487.801 -2.26768 1.9334 0
M  V30 5048 H 485.338 -1.11171 0.963297 0
M  V30 5049 H 487.296 -4.15899 0.329227 0
M  V30 5050 H 485.926 -3.21314 -0.309426 0
M  V30 5051 H 484.978 -3.16513 2.11006 0
M  V30 5052 H 486.29 -4.26797 2.58158 0
M  V30 5053 H 485.444 -5.98854 0.972546 0
M  V30 5054 H 484.183 -4.86061 0.399445 0
M  V30 5055 H 483.188 -4.78759 2.70315 0
M  V30 5056 H 484.413 -5.94988 3.27362 0
M  V30 5057 H 482.359 -6.46874 1.09041 0
M  V30 5058 H 482.276 -7.05386 2.71968 0
M  V30 5059 H 483.544 -7.61387 1.67062 0
M  V30 5060 O 487.812 -1.16279 -1.12078 0
M  V30 5061 H 488.503 -0.894109 -1.7183 0
M  V30 END ATOM
M  V30 BEGIN BOND
M  V30 END BOND
M  V30 END CTAB
M  END
$$$$
