drugbank_target|P05655 Levansucrase (DB02772)
 OpenBabel12092120243D

  0  0  0     0  0            999 V3000
M  V30 BEGIN CTAB
M  V30 COUNTS 7358 7437 0 0 0
M  V30 BEGIN ATOM
M  V30 1 H -0.908 1.98254 -0.117106 0
M  V30 2 N 0 1.576 0 0
M  V30 3 C 0.933 2.03868 1.02534 0
M  V30 4 C 1.911 0.928543 1.3348 0
M  V30 5 O 3.095 1.19667 1.45644 0
M  V30 6 C 0.222 2.43627 2.35294 0
M  V30 7 C -0.732 3.65373 2.2001 0
M  V30 8 S 0.101 5.13292 1.52614 0
M  V30 9 C 1.257 5.56322 2.86805 0
M  V30 10 H 1.49 2.90518 0.631377 0
M  V30 11 H -0.977 1.52953 0.210867 0
M  V30 12 H 0.981 2.67203 3.11629 0
M  V30 13 H -0.358 1.57376 2.7183 0
M  V30 14 H -1.165 3.90944 3.18086 0
M  V30 15 H -1.563 3.418 1.51819 0
M  V30 16 H 0.729 5.58782 3.83104 0
M  V30 17 H 1.672 6.56266 2.65933 0
M  V30 18 H 2.08 4.83886 2.90714 0
M  V30 19 N 1.4781 -0.272755 1.55222 0
M  V30 20 C 2.4261 -1.35705 1.88909 0
M  V30 21 C 3.4201 -1.5112 0.765456 0
M  V30 22 O 4.6261 -1.52901 0.949802 0
M  V30 23 H 1.0011 -0.453868 0.59959 0
M  V30 24 H 2.9721 -1.04544 2.79487 0
M  V30 25 C 1.7211 -2.71049 2.17779 0
M  V30 26 H 1.0441 -2.59979 3.03728 0
M  V30 27 H 2.4841 -3.45858 2.45272 0
M  V30 28 C 0.9431 -3.22165 0.985473 0
M  V30 29 O 1.4731 -4.01096 0.220233 0
M  V30 30 N -0.3209 -2.7985 0.783108 0
M  V30 31 H -0.7739 -2.15775 1.40708 0
M  V30 32 H -0.8159 -3.14397 -0.0130392 0
M  V30 33 N 2.9562 -1.48159 -0.537278 0
M  V30 34 C 4.2052 -1.5506 -1.28993 0
M  V30 35 C 4.5182 -0.226211 -1.94288 0
M  V30 36 O 5.7242 -0.173395 -2.70946 0
M  V30 37 C 4.1802 -2.73429 -2.34018 0
M  V30 38 C 3.7882 -4.1248 -1.74825 0
M  V30 39 C 5.5322 -2.89638 -3.10339 0
M  V30 40 C 3.4392 -5.22121 -2.77747 0
M  V30 41 H 2.3692 -0.577231 -0.485098 0
M  V30 42 H 5.0202 -1.74478 -0.568317 0
M  V30 43 H 3.4022 -2.47431 -3.09182 0
M  V30 44 H 4.5762 -4.48466 -1.05899 0
M  V30 45 H 2.8912 -4.01327 -1.11022 0
M  V30 46 H 5.4882 -3.68718 -3.87235 0
M  V30 47 H 5.8312 -1.9882 -3.65754 0
M  V30 48 H 6.3642 -3.15502 -2.42288 0
M  V30 49 H 3.1032 -6.1488 -2.27161 0
M  V30 50 H 2.6232 -4.90631 -3.45024 0
M  V30 51 H 4.3022 -5.49924 -3.4087 0
M  V30 52 N 4.4343 0.785586 -1.36625 0
M  V30 53 C 5.3813 1.89838 -1.31264 0
M  V30 54 C 6.3513 1.65115 -0.180633 0
M  V30 55 O 7.5363 1.87222 -0.36777 0
M  V30 56 C 4.6763 3.26706 -1.11163 0
M  V30 57 C 3.7893 3.63476 -2.33472 0
M  V30 58 C 2.9243 4.89481 -2.06353 0
M  V30 59 C 1.9633 5.18941 -3.24602 0
M  V30 60 N 1.1003 6.36131 -2.97123 0
M  V30 61 H 5.9403 1.93756 -2.26413 0
M  V30 62 H 3.4773 0.947454 -1.12524 0
M  V30 63 H 5.4353 4.05639 -0.975337 0
M  V30 64 H 4.0653 3.222 -0.196674 0
M  V30 65 H 3.1173 2.79636 -2.57891 0
M  V30 66 H 4.4293 3.81193 -3.21704 0
M  V30 67 H 3.5833 5.76288 -1.89675 0
M  V30 68 H 2.3223 4.73841 -1.15437 0
M  V30 69 H 1.3273 4.30615 -3.41834 0
M  V30 70 H 2.5523 5.36498 -4.16349 0
M  V30 71 H 0.4983 6.21875 -2.08823 0
M  V30 72 H 0.4153 6.54198 -3.78894 0
M  V30 73 H 1.6833 7.2591 -2.84033 0
M  V30 74 N 5.9124 1.20967 1.01018 0
M  V30 75 C 6.8594 0.964281 2.09691 0
M  V30 76 C 7.8294 -0.107853 1.65749 0
M  V30 77 O 9.0144 0.0381987 1.90762 0
M  V30 78 C 6.1544 0.52943 3.41015 0
M  V30 79 C 5.2674 1.67043 3.98398 0
M  V30 80 C 4.4024 1.18525 5.17808 0
M  V30 81 C 3.4414 2.29892 5.67288 0
M  V30 82 N 2.5784 1.82546 6.77954 0
M  V30 83 H 7.4184 1.89463 2.30017 0
M  V30 84 H 4.9554 0.944289 1.1279 0
M  V30 85 H 6.9134 0.258588 4.16398 0
M  V30 86 H 5.5434 -0.363919 3.20742 0
M  V30 87 H 4.5954 2.05603 3.20049 0
M  V30 88 H 5.9074 2.50877 4.31117 0
M  V30 89 H 5.0614 0.870762 6.00419 0
M  V30 90 H 3.8004 0.316887 4.86669 0
M  V30 91 H 2.8054 2.6215 4.83278 0
M  V30 92 H 4.0304 3.17216 6.00459 0
M  V30 93 H 1.9764 0.980454 6.48632 0
M  V30 94 H 1.8934 2.59956 7.09901 0
M  V30 95 H 3.1614 1.54115 7.64113 0
M  V30 96 N 7.3905 -1.2043 1.01659 0
M  V30 97 C 8.6375 -1.89797 0.705917 0
M  V30 98 C 8.9655 -1.78848 -0.764439 0
M  V30 99 O 8.2205 -1.16694 -1.57102 0
M  V30 100 C 8.5195 -3.40464 1.08714 0
M  V30 101 C 8.1855 -3.71614 2.5537 0
M  V30 102 C 6.8475 -3.79826 2.95441 0
M  V30 103 C 9.1995 -3.85915 3.50313 0
M  V30 104 C 6.5275 -3.99797 4.29394 0
M  V30 105 C 8.8795 -4.07396 4.83954 0
M  V30 106 C 7.5435 -4.13837 5.23732 0
M  V30 107 H 6.8135 -0.694518 0.258313 0
M  V30 108 H 9.4605 -1.42691 1.27717 0
M  V30 109 H 7.7655 -3.89385 0.434309 0
M  V30 110 H 9.4625 -3.92433 0.824461 0
M  V30 111 H 6.0525 -3.65822 2.23321 0
M  V30 112 H 10.2365 -3.78926 3.20513 0
M  V30 113 H 5.4925 -4.03018 4.59768 0
M  V30 114 H 9.6665 -4.17404 5.57447 0
M  V30 115 H 7.2935 -4.29064 6.27541 0
M  V30 116 N 8.8686 -0.792821 -1.36206 0
M  V30 117 C 9.8316 -0.199459 -2.2833 0
M  V30 118 C 10.8316 0.605189 -1.48977 0
M  V30 119 O 12.0216 0.425685 -1.68919 0
M  V30 120 C 9.1536 0.723523 -3.33134 0
M  V30 121 H 10.3466 -1.01181 -2.82316 0
M  V30 122 H 7.8996 -0.562485 -1.45828 0
M  V30 123 H 8.6346 1.56008 -2.84309 0
M  V30 124 H 8.4196 0.148436 -3.91819 0
M  V30 125 H 9.9096 1.13344 -4.01924 0
M  V30 126 N 10.3467 1.47872 -0.545128 0
M  V30 127 C 11.2937 2.29849 0.2093 0
M  V30 128 C 12.2637 1.38313 0.919707 0
M  V30 129 O 13.4487 1.67277 0.917772 0
M  V30 130 C 10.5887 3.22019 1.24088 0
M  V30 131 C 9.7017 4.2864 0.537778 0
M  V30 132 C 8.8367 5.07973 1.5536 0
M  V30 133 C 7.8757 6.06381 0.8348 0
M  V30 134 N 7.0127 6.78717 1.79688 0
M  V30 135 H 11.8527 2.93845 -0.49591 0
M  V30 136 H 9.3897 1.44848 -0.256389 0
M  V30 137 H 11.3477 3.73868 1.85144 0
M  V30 138 H 9.9777 2.59914 1.91428 0
M  V30 139 H 9.0297 3.7994 -0.187046 0
M  V30 140 H 10.3417 4.98793 -0.0258907 0
M  V30 141 H 9.4957 5.63912 2.23803 0
M  V30 142 H 8.2347 4.37693 2.15118 0
M  V30 143 H 7.2397 5.49631 0.136388 0
M  V30 144 H 8.4647 6.78665 0.24313 0
M  V30 145 H 6.4107 6.11177 2.38326 0
M  V30 146 H 6.3277 7.44998 1.28505 0
M  V30 147 H 7.5957 7.39237 2.47282 0
M  V30 148 N 11.8248 0.280983 1.55075 0
M  V30 149 C 12.7568 -0.637268 2.20163 0
M  V30 150 C 13.7698 -1.11298 1.18813 0
M  V30 151 O 14.9588 -1.03388 1.4551 0
M  V30 152 C 12.0588 -1.88199 2.81841 0
M  V30 153 C 11.2318 -1.55211 4.08936 0
M  V30 154 C 10.2908 -2.64991 4.54606 0
M  V30 155 O 9.3168 -2.30929 5.2025 0
M  V30 156 N 10.5188 -3.95161 4.25238 0
M  V30 157 H 13.2838 -0.0801694 2.99593 0
M  V30 158 H 10.8448 0.102329 1.61576 0
M  V30 159 H 12.8368 -2.60948 3.09335 0
M  V30 160 H 11.4068 -2.34799 2.06369 0
M  V30 161 H 10.6268 -0.658185 3.88666 0
M  V30 162 H 11.9148 -1.30681 4.91732 0
M  V30 163 H 11.3128 -4.25653 3.72607 0
M  V30 164 H 9.8698 -4.6427 4.5749 0
M  V30 165 N 13.3029 -1.57598 0.00835791 0
M  V30 166 C 14.2659 -2.07884 -0.965242 0
M  V30 167 C 15.2659 -0.989825 -1.26725 0
M  V30 168 O 16.4559 -1.25218 -1.21104 0
M  V30 169 C 13.5879 -2.52731 -2.28779 0
M  V30 170 H 14.7809 -2.95178 -0.530112 0
M  V30 171 H 12.3339 -1.54458 -0.239283 0
M  V30 172 H 13.0689 -1.68705 -2.76964 0
M  V30 173 H 12.8539 -3.32272 -2.08177 0
M  V30 174 H 14.3439 -2.91933 -2.98605 0
M  V30 175 N 14.781 0.264519 -1.55364 0
M  V30 176 C 16.009 1.013 -1.80405 0
M  V30 177 C 16.424 1.79618 -0.581622 0
M  V30 178 O 15.781 1.76879 0.449468 0
M  V30 179 C 15.832 1.96487 -3.03439 0
M  V30 180 O 15.553 1.21341 -4.20961 0
M  V30 181 C 17.054 2.83079 -3.41147 0
M  V30 182 H 14.274 0.298875 -0.600762 0
M  V30 183 H 16.818 0.292736 -2.02394 0
M  V30 184 H 14.973 2.63965 -2.83551 0
M  V30 185 H 15.387 1.85573 -4.90574 0
M  V30 186 H 16.861 3.4565 -4.30384 0
M  V30 187 H 17.338 3.53286 -2.60932 0
M  V30 188 H 17.944 2.2108 -3.63323 0
M  V30 189 N 16.2591 1.48442 0.529413 0
M  V30 190 C 17.5051 1.5672 1.28711 0
M  V30 191 C 17.8381 0.2406 1.92704 0
M  V30 192 O 17.1131 -0.753454 1.79313 0
M  V30 193 C 17.3961 2.70587 2.37603 0
M  V30 194 C 17.2491 4.12953 1.78297 0
M  V30 195 C 18.5681 2.80212 3.39366 0
M  V30 196 H 15.6871 0.570474 0.466613 0
M  V30 197 H 18.3291 1.80617 0.589706 0
M  V30 198 H 16.4791 2.50342 2.97088 0
M  V30 199 H 18.1511 4.44639 1.22858 0
M  V30 200 H 16.3941 4.19927 1.0883 0
M  V30 201 H 17.0651 4.88448 2.57144 0
M  V30 202 H 19.5411 2.98553 2.89836 0
M  V30 203 H 18.4171 3.61611 4.12951 0
M  V30 204 H 18.6781 1.88393 3.99951 0
M  V30 205 N 17.7372 -0.778329 1.37039 0
M  V30 206 C 18.6672 -1.90546 1.34962 0
M  V30 207 C 19.6482 -1.68681 0.219274 0
M  V30 208 O 20.8332 -1.89634 0.418624 0
M  V30 209 C 17.9632 -3.27734 1.14925 0
M  V30 210 C 16.9172 -3.64147 2.24902 0
M  V30 211 C 16.2432 -4.99806 1.89996 0
M  V30 212 C 17.5432 -3.71579 3.67051 0
M  V30 213 H 19.2372 -1.92541 2.29277 0
M  V30 214 H 16.7832 -0.924948 1.10366 0
M  V30 215 H 18.7362 -4.06215 1.12104 0
M  V30 216 H 17.4602 -3.26154 0.170631 0
M  V30 217 H 16.1192 -2.8797 2.26868 0
M  V30 218 H 15.7672 -4.94759 0.906796 0
M  V30 219 H 15.4672 -5.25139 2.63634 0
M  V30 220 H 16.9912 -5.80694 1.88749 0
M  V30 221 H 18.4052 -4.40227 3.67251 0
M  V30 222 H 16.8022 -4.08405 4.39688 0
M  V30 223 H 17.8722 -2.72404 4.01154 0
M  V30 224 N 19.2153 -1.21501 -1.00376 0
M  V30 225 C 20.4433 -1.059 -1.77744 0
M  V30 226 C 20.8583 0.391125 -1.84704 0
M  V30 227 O 20.2153 1.27133 -1.30933 0
M  V30 228 C 20.2663 -1.65111 -3.21591 0
M  V30 229 O 19.9873 -3.0445 -3.15027 0
M  V30 230 C 21.4883 -1.54637 -4.15454 0
M  V30 231 H 18.7083 -0.371825 -0.558558 0
M  V30 232 H 21.2523 -1.60865 -1.26264 0
M  V30 233 H 19.4073 -1.14235 -3.70175 0
M  V30 234 H 19.8213 -3.3278 -4.0541 0
M  V30 235 H 21.2953 -2.00808 -5.14179 0
M  V30 236 H 21.7723 -0.501022 -4.36333 0
M  V30 237 H 22.3783 -2.04767 -3.72761 0
M  V30 238 N 20.6934 1.19889 -1.02296 0
M  V30 239 C 21.9404 1.8942 -0.715972 0
M  V30 240 C 22.2684 1.79251 0.754944 0
M  V30 241 O 21.5234 1.17526 1.56481 0
M  V30 242 C 21.8224 3.39883 -1.10518 0
M  V30 243 C 21.4884 3.70254 -2.57337 0
M  V30 244 C 20.1504 3.78254 -2.97452 0
M  V30 245 C 22.5024 3.84052 -3.52354 0
M  V30 246 C 19.8304 3.97514 -4.31509 0
M  V30 247 C 22.1824 4.04824 -4.86108 0
M  V30 248 C 20.8464 4.11054 -5.25919 0
M  V30 249 H 20.1164 0.693138 -0.261993 0
M  V30 250 H 22.7634 1.42012 -1.28472 0
M  V30 251 H 21.0684 3.8915 -0.454953 0
M  V30 252 H 22.7654 3.9199 -0.845261 0
M  V30 253 H 19.3554 3.64632 -2.25258 0
M  V30 254 H 23.5394 3.77221 -3.22518 0
M  V30 255 H 18.7954 4.00574 -4.61898 0
M  V30 256 H 22.9694 4.14442 -5.59653 0
M  V30 257 H 20.5964 4.2573 -6.29808 0
M  V30 258 N 22.1715 0.800033 1.35784 0
M  V30 259 C 23.3995 0.389606 2.03199 0
M  V30 260 C 23.8145 -0.997375 1.60306 0
M  V30 261 O 23.1715 -1.64154 0.797481 0
M  V30 262 C 23.2225 0.455855 3.58614 0
M  V30 263 O 22.9435 1.78815 3.99946 0
M  V30 264 C 24.4445 0.0374032 4.43284 0
M  V30 265 H 21.6645 0.159132 0.651857 0
M  V30 266 H 24.2085 1.08183 1.73541 0
M  V30 267 H 22.3635 -0.188057 3.86943 0
M  V30 268 H 22.7775 1.74636 4.94573 0
M  V30 269 H 24.2515 0.134882 5.51835 0
M  V30 270 H 24.7285 -1.01651 4.27275 0
M  V30 271 H 25.3345 0.654215 4.20238 0
M  V30 272 N 23.6496 -1.47581 0.552962 0
M  V30 273 C 24.8776 -2.06875 0.0320556 0
M  V30 274 C 25.2926 -1.40625 -1.25976 0
M  V30 275 O 24.6496 -0.501349 -1.75479 0
M  V30 276 C 24.7006 -3.61092 -0.17167 0
M  V30 277 O 24.4216 -4.24858 1.06899 0
M  V30 278 C 25.9226 -4.37242 -0.730344 0
M  V30 279 H 23.1426 -0.669561 0.043915 0
M  V30 280 H 25.6866 -1.89646 0.765163 0
M  V30 281 H 23.8416 -3.7785 -0.854894 0
M  V30 282 H 24.2556 -5.17334 0.864059 0
M  V30 283 H 25.7296 -5.45842 -0.822203 0
M  V30 284 H 26.2066 -4.03235 -1.74064 0
M  V30 285 H 26.8126 -4.25219 -0.0829543 0
M  V30 286 N 25.1277 -0.289203 -1.54924 0
M  V30 287 C 26.0907 0.579144 -2.21762 0
M  V30 288 C 27.0907 1.07047 -1.1999 0
M  V30 289 O 28.2807 0.968384 -1.44803 0
M  V30 290 C 25.4127 1.80055 -2.8947 0
M  V30 291 H 26.6057 -0.00464908 -2.999 0
M  V30 292 H 24.1587 -0.0399306 -1.56249 0
M  V30 293 H 24.8937 2.42449 -2.15381 0
M  V30 294 H 24.6787 1.45602 -3.64064 0
M  V30 295 H 26.1687 2.41773 -3.40493 0
M  V30 296 N 26.6058 1.57591 -0.0167156 0
M  V30 297 C 27.5358 2.12496 0.967858 0
M  V30 298 C 28.5168 1.03807 1.34752 0
M  V30 299 O 29.7018 1.31577 1.42833 0
M  V30 300 C 26.8318 2.64194 2.25431 0
M  V30 301 C 25.7858 3.77559 2.01576 0
M  V30 302 C 25.1118 4.15636 3.36379 0
M  V30 303 C 26.4118 5.04151 1.36489 0
M  V30 304 H 28.1058 2.95013 0.510643 0
M  V30 305 H 25.6518 1.41915 0.244181 0
M  V30 306 H 27.6048 3.01236 2.94678 0
M  V30 307 H 26.3288 1.78821 2.73296 0
M  V30 308 H 24.9878 3.40937 1.34751 0
M  V30 309 H 24.6358 3.27263 3.81979 0
M  V30 310 H 24.3358 4.92022 3.21229 0
M  V30 311 H 25.8598 4.5525 4.06915 0
M  V30 312 H 27.2738 5.38857 1.95718 0
M  V30 313 H 25.6708 5.85453 1.31776 0
M  V30 314 H 26.7408 4.83733 0.336219 0
M  V30 315 N 28.0839 -0.256276 1.55502 0
M  V30 316 C 29.0139 -1.32102 1.92539 0
M  V30 317 C 29.9949 -1.50684 0.789194 0
M  V30 318 O 31.1799 -1.63449 1.04872 0
M  V30 319 C 28.3099 -2.67752 2.21192 0
M  V30 320 C 27.2639 -2.63878 3.36975 0
M  V30 321 C 26.5899 -4.03236 3.51147 0
M  V30 322 C 27.8899 -2.21682 4.72921 0
M  V30 323 H 29.5839 -1.01351 2.81724 0
M  V30 324 H 27.1299 -0.486105 1.35547 0
M  V30 325 H 29.0829 -3.42365 2.45691 0
M  V30 326 H 27.8069 -3.0012 1.28824 0
M  V30 327 H 26.4659 -1.91722 3.12471 0
M  V30 328 H 26.1139 -4.32854 2.56216 0
M  V30 329 H 25.8139 -4.01535 4.29003 0
M  V30 330 H 27.3379 -4.79563 3.77957 0
M  V30 331 H 28.7519 -2.86023 4.96854 0
M  V30 332 H 27.1489 -2.3111 5.53812 0
M  V30 333 H 28.2189 -1.16833 4.70615 0
M  V30 334 N 29.562 -1.4872 -0.521534 0
M  V30 335 C 30.525 -1.63379 -1.60748 0
M  V30 336 C 31.525 -0.50661 -1.52611 0
M  V30 337 O 32.715 -0.772601 -1.5613 0
M  V30 338 C 29.847 -1.61192 -3.00383 0
M  V30 339 H 31.04 -2.60217 -1.49087 0
M  V30 340 H 28.593 -1.37444 -0.744235 0
M  V30 341 H 29.328 -0.65863 -3.17541 0
M  V30 342 H 29.113 -2.43032 -3.07698 0
M  V30 343 H 30.603 -1.7466 -3.7932 0
M  V30 344 N 31.0401 0.771051 -1.3745 0
M  V30 345 C 32.2881 1.52661 -1.32435 0
M  V30 346 C 32.6091 1.9479 0.0905024 0
M  V30 347 O 31.8791 1.66348 1.03466 0
M  V30 348 H 30.4591 0.566218 -0.487244 0
M  V30 349 H 33.1211 0.917636 -1.71946 0
M  V30 350 H 32.2171 2.42568 -1.96385 0
M  V30 351 N 32.5182 1.22032 0.997298 0
M  V30 352 C 33.7662 1.04016 1.73278 0
M  V30 353 C 34.0872 -0.426255 1.90284 0
M  V30 354 O 33.3572 -1.30694 1.45931 0
M  V30 355 H 31.9372 0.381897 0.642 0
M  V30 356 H 34.5992 1.5347 1.20137 0
M  V30 357 H 33.6952 1.51441 2.72896 0
M  V30 358 N 33.9963 -1.19345 1.0293 0
M  V30 359 C 34.9593 -2.20793 0.615069 0
M  V30 360 C 35.9593 -1.57553 -0.321533 0
M  V30 361 O 37.1493 -1.73862 -0.108483 0
M  V30 362 C 34.2813 -3.40754 -0.0999222 0
M  V30 363 H 35.4743 -2.58955 1.51269 0
M  V30 364 H 33.0273 -1.3303 0.820534 0
M  V30 365 H 33.7623 -3.0811 -1.01187 0
M  V30 366 H 33.5473 -3.87889 0.57309 0
M  V30 367 H 35.0373 -4.15898 -0.376645 0
M  V30 368 N 35.4744 -0.807222 -1.35358 0
M  V30 369 C 36.7024 -0.400377 -2.02989 0
M  V30 370 C 37.1174 0.988859 -1.60832 0
M  V30 371 O 36.4744 1.63729 -0.806175 0
M  V30 372 C 36.5254 -0.474867 -3.58368 0
M  V30 373 O 36.2464 -1.80933 -3.98992 0
M  V30 374 C 37.7474 -0.0609112 -4.43258 0
M  V30 375 H 34.9674 -0.162587 -0.651004 0
M  V30 376 H 37.5114 -1.09102 -1.72965 0
M  V30 377 H 35.6664 0.167534 -3.87038 0
M  V30 378 H 36.0804 -1.77256 -4.9364 0
M  V30 379 H 37.5544 -0.164145 -5.51756 0
M  V30 380 H 38.0314 0.993831 -4.27808 0
M  V30 381 H 38.6374 -0.676492 -4.19885 0
M  V30 382 N 36.9525 1.47285 -0.560781 0
M  V30 383 C 37.8845 2.28118 0.222438 0
M  V30 384 C 38.8975 1.37219 0.876056 0
M  V30 385 O 40.0865 1.62011 0.749307 0
M  V30 386 C 37.1865 3.1159 1.33285 0
M  V30 387 C 36.3595 4.30473 0.77534 0
M  V30 388 C 35.4185 4.95513 1.77069 0
M  V30 389 O 34.4445 5.53792 1.31539 0
M  V30 390 N 35.6465 4.90531 3.10418 0
M  V30 391 H 38.4115 2.95976 -0.470958 0
M  V30 392 H 35.9725 1.56955 -0.39709 0
M  V30 393 H 37.9645 3.51967 1.99752 0
M  V30 394 H 36.5345 2.45951 1.92943 0
M  V30 395 H 35.7545 3.94144 -0.0662113 0
M  V30 396 H 37.0425 5.07362 0.382272 0
M  V30 397 H 36.4405 4.44389 3.5005 0
M  V30 398 H 34.9975 5.34917 3.72434 0
M  V30 399 N 38.4306 0.297415 1.54768 0
M  V30 400 C 39.3936 -0.567375 2.22066 0
M  V30 401 C 40.3936 -1.06409 1.20556 0
M  V30 402 O 41.5836 -0.960691 1.45315 0
M  V30 403 C 38.7156 -1.78517 2.90421 0
M  V30 404 H 39.9086 0.0205534 2.99893 0
M  V30 405 H 37.4616 0.0482163 1.56226 0
M  V30 406 H 38.1966 -2.41303 2.16664 0
M  V30 407 H 37.9816 -1.43669 3.64831 0
M  V30 408 H 39.4716 -2.39964 3.41771 0
M  V30 409 N 39.9087 -1.5758 0.0250728 0
M  V30 410 C 41.1557 -1.91633 -0.654444 0
M  V30 411 C 41.4837 -0.901103 -1.72367 0
M  V30 412 O 40.7387 0.0905647 -1.9549 0
M  V30 413 C 41.0377 -3.32421 -1.31268 0
M  V30 414 C 40.7037 -4.49344 -0.374223 0
M  V30 415 C 39.3657 -4.8106 -0.115911 0
M  V30 416 C 41.7177 -5.20498 0.270432 0
M  V30 417 C 39.0457 -5.8129 0.79493 0
M  V30 418 C 41.3977 -6.21699 1.1693 0
M  V30 419 C 40.0617 -6.51859 1.43655 0
M  V30 420 H 39.3317 -0.701236 -0.239478 0
M  V30 421 H 41.9787 -1.91307 0.0859734 0
M  V30 422 H 40.2837 -3.28989 -2.12775 0
M  V30 423 H 41.9807 -3.56038 -1.84494 0
M  V30 424 H 38.5707 -4.24579 -0.58573 0
M  V30 425 H 42.7547 -4.96229 0.0839194 0
M  V30 426 H 38.0107 -6.03005 1.00973 0
M  V30 427 H 42.1847 -6.75955 1.67504 0
M  V30 428 H 39.8117 -7.2934 2.144 0
M  V30 429 N 41.3868 0.248026 -1.55636 0
M  V30 430 C 42.3498 1.29044 -1.89421 0
M  V30 431 C 43.3498 1.41134 -0.770581 0
M  V30 432 O 44.5398 1.39854 -1.03858 0
M  V30 433 C 41.6718 2.66831 -2.12165 0
M  V30 434 H 42.8648 1.00305 -2.82629 0
M  V30 435 H 40.4178 0.487265 -1.48511 0
M  V30 436 H 41.1528 3.00711 -1.21422 0
M  V30 437 H 40.9378 2.59438 -2.93997 0
M  V30 438 H 42.4278 3.42103 -2.3949 0
M  V30 439 N 42.8649 1.48995 0.513639 0
M  V30 440 C 43.8119 1.6473 1.61656 0
M  V30 441 C 44.7819 0.488984 1.58739 0
M  V30 442 O 45.9669 0.714478 1.76918 0
M  V30 443 C 43.1069 1.7082 2.99858 0
M  V30 444 C 42.2199 2.9787 3.12885 0
M  V30 445 C 41.3549 2.95017 4.41744 0
M  V30 446 C 40.3939 4.16702 4.48359 0
M  V30 447 N 39.5309 4.11832 5.68629 0
M  V30 448 H 44.3709 2.58909 1.47547 0
M  V30 449 H 41.9079 1.28382 0.71808 0
M  V30 450 H 43.8659 1.72331 3.79944 0
M  V30 451 H 42.4959 0.801181 3.12699 0
M  V30 452 H 41.5479 3.06029 2.25944 0
M  V30 453 H 42.8599 3.8786 3.13633 0
M  V30 454 H 42.0139 2.95021 5.30139 0
M  V30 455 H 40.7529 2.02784 4.43542 0
M  V30 456 H 39.7579 4.16955 3.58369 0
M  V30 457 H 40.9829 5.10113 4.48287 0
M  V30 458 H 38.9289 3.22428 5.71293 0
M  V30 459 H 38.8459 4.95543 5.7094 0
M  V30 460 H 40.1139 4.1592 6.59266 0
M  V30 461 N 44.343 -0.763751 1.37857 0
M  V30 462 C 45.253 -1.90817 1.36478 0
M  V30 463 C 46.269 -1.71997 0.263248 0
M  V30 464 O 47.445 -1.95095 0.499979 0
M  V30 465 C 44.51 -3.2605 1.17864 0
M  V30 466 C 43.571 -3.57467 2.3773 0
M  V30 467 C 42.804 -4.86249 2.19995 0
M  V30 468 O 43.027 -5.57884 1.18836 0
M  V30 469 O 41.961 -5.16911 3.08361 0
M  V30 470 H 45.787 -1.94933 2.32884 0
M  V30 471 H 43.372 -0.907619 1.1867 0
M  V30 472 H 45.254 -4.06924 1.09504 0
M  V30 473 H 43.929 -3.22769 0.245372 0
M  V30 474 H 42.836 -2.76796 2.51664 0
M  V30 475 H 44.169 -3.655 3.29652 0
M  V30 476 N 45.8211 -1.22559 -0.990812 0
M  V30 477 C 47.0491 -1.07779 -1.76611 0
M  V30 478 C 47.4641 0.371513 -1.85109 0
M  V30 479 O 46.8211 1.25737 -1.32274 0
M  V30 480 C 46.8721 -1.68512 -3.19822 0
M  V30 481 O 46.5931 -3.07774 -3.1178 0
M  V30 482 C 48.0941 -1.59035 -4.13791 0
M  V30 483 H 45.3141 -0.377729 -0.554583 0
M  V30 484 H 47.8581 -1.62195 -1.24551 0
M  V30 485 H 46.0131 -1.18154 -3.68942 0
M  V30 486 H 46.4271 -3.37062 -4.01858 0
M  V30 487 H 47.9011 -2.0625 -5.1202 0
M  V30 488 H 48.3781 -0.547273 -4.35777 0
M  V30 489 H 48.9841 -2.08709 -3.70568 0
M  V30 490 N 47.2992 1.18797 -1.03562 0
M  V30 491 C 48.2472 2.24297 -0.615905 0
M  V30 492 C 49.2412 1.65643 0.354808 0
M  V30 493 O 50.4472 1.78618 0.22265 0
M  V30 494 H 46.8222 0.729909 -0.180934 0
M  V30 495 H 48.7932 2.5701 -1.5162 0
M  V30 496 C 47.5422 3.47698 0.0104735 0
M  V30 497 H 46.8652 3.93125 -0.727509 0
M  V30 498 H 48.3052 4.23159 0.266995 0
M  V30 499 C 46.7642 3.12489 1.25905 0
M  V30 500 O 47.2942 3.25761 2.35038 0
M  V30 501 N 45.5002 2.6686 1.15039 0
M  V30 502 H 45.0472 2.56261 0.262328 0
M  V30 503 H 45.0052 2.43674 1.98672 0
M  V30 504 N 48.7773 0.814389 1.34928 0
M  V30 505 C 49.7093 0.187834 2.28429 0
M  V30 506 C 50.7223 -0.617374 1.5064 0
M  V30 507 O 51.9113 -0.448454 1.72775 0
M  V30 508 C 49.0113 -0.755962 3.30361 0
M  V30 509 C 48.1843 0.00456686 4.374 0
M  V30 510 C 47.2433 -0.858876 5.19143 0
M  V30 511 O 46.2693 -0.306968 5.68372 0
M  V30 512 N 47.4713 -2.17988 5.38016 0
M  V30 513 H 50.2363 0.991105 2.82838 0
M  V30 514 H 47.7973 0.670561 1.4736 0
M  V30 515 H 49.7893 -1.338 3.81942 0
M  V30 516 H 48.3593 -1.46001 2.7641 0
M  V30 517 H 47.5793 0.767865 3.86649 0
M  V30 518 H 48.8673 0.528422 5.06049 0
M  V30 519 H 48.2653 -2.65212 4.99679 0
M  V30 520 H 46.8223 -2.71098 5.92747 0
M  V30 521 N 50.2554 -1.46986 0.568584 0
M  V30 522 C 51.2024 -2.30153 -0.172707 0
M  V30 523 C 52.1724 -1.39759 -0.897586 0
M  V30 524 O 53.3574 -1.68716 -0.891044 0
M  V30 525 C 50.4974 -3.23952 -1.1895 0
M  V30 526 C 49.6104 -4.29441 -0.469517 0
M  V30 527 C 48.7454 -5.1038 -1.47259 0
M  V30 528 C 47.7844 -6.07632 -0.738225 0
M  V30 529 N 46.9214 -6.8149 -1.68868 0
M  V30 530 H 51.7614 -2.93019 0.542596 0
M  V30 531 H 49.2984 -1.44422 0.279401 0
M  V30 532 H 51.2564 -3.76767 -1.79173 0
M  V30 533 H 49.8864 -2.62926 -1.87269 0
M  V30 534 H 48.9384 -3.79594 0.247467 0
M  V30 535 H 50.2504 -4.98689 0.105241 0
M  V30 536 H 49.4044 -5.67402 -2.14803 0
M  V30 537 H 48.1434 -4.4106 -2.08128 0
M  V30 538 H 47.1484 -5.49778 -0.0489293 0
M  V30 539 H 48.3734 -6.78966 -0.135129 0
M  V30 540 H 46.3194 -6.14891 -2.28573 0
M  V30 541 H 46.2364 -7.46948 -1.16636 0
M  V30 542 H 47.5044 -7.43078 -2.3549 0
M  V30 543 N 51.7335 -0.305618 -1.54608 0
M  V30 544 C 53.1445 0.186098 -1.8577 0
M  V30 545 C 53.4955 1.53058 -1.22751 0
M  V30 546 O 52.6205 2.09888 -0.526893 0
M  V30 547 C 53.2155 0.344449 -3.37044 0
M  V30 548 C 51.7745 0.780384 -3.68221 0
M  V30 549 C 50.9215 -0.108554 -2.77087 0
M  V30 550 H 53.8725 -0.526485 -1.49712 0
M  V30 551 H 53.8935 1.17828 -3.61796 0
M  V30 552 H 53.4055 -0.634235 -3.82883 0
M  V30 553 H 51.5065 1.76945 -3.27904 0
M  V30 554 H 51.6195 0.596572 -4.75371 0
M  V30 555 H 49.9835 0.412931 -2.5133 0
M  V30 556 H 50.7665 -1.08368 -3.25747 0
M  V30 557 N 53.2116 1.57565 -0.0334293 0
M  V30 558 C 54.4416 1.95996 0.653398 0
M  V30 559 C 54.8496 0.908749 1.65947 0
M  V30 560 O 54.1926 -0.117471 1.83324 0
M  V30 561 C 54.2546 3.30589 1.41249 0
M  V30 562 C 53.9186 4.53503 0.564263 0
M  V30 563 C 54.9156 5.19647 -0.16225 0
M  V30 564 C 52.6006 4.99801 0.500398 0
M  V30 565 C 54.5946 6.30412 -0.941255 0
M  V30 566 C 52.2816 6.10448 -0.282308 0
M  V30 567 C 53.2796 6.75612 -1.00184 0
M  V30 568 O 52.9676 7.84134 -1.77171 0
M  V30 569 H 52.6996 0.65027 0.184728 0
M  V30 570 H 55.2536 2.05199 -0.0907841 0
M  V30 571 H 53.4836 3.17888 2.20191 0
M  V30 572 H 55.1726 3.53892 1.98784 0
M  V30 573 H 55.9386 4.84846 -0.12227 0
M  V30 574 H 51.8176 4.48883 1.05002 0
M  V30 575 H 55.3616 6.81208 -1.50339 0
M  V30 576 H 51.2586 6.44686 -0.323989 0
M  V30 577 H 52.0266 8.00822 -1.69194 0
M  V30 578 N 54.6897 -0.239769 1.55765 0
M  V30 579 C 55.6367 -1.29696 1.90913 0
M  V30 580 C 56.6067 -1.47478 0.764164 0
M  V30 581 O 57.7917 -1.61345 1.01845 0
M  V30 582 C 54.9317 -2.64598 2.21544 0
M  V30 583 C 54.0447 -2.54765 3.48882 0
M  V30 584 C 53.1797 -3.82069 3.69049 0
M  V30 585 C 52.2187 -3.66883 4.89963 0
M  V30 586 N 51.3557 -4.86094 5.06614 0
M  V30 587 H 56.1957 -0.990224 2.81067 0
M  V30 588 H 53.7327 -0.477684 1.39128 0
M  V30 589 H 55.6907 -3.43132 2.3731 0
M  V30 590 H 54.3207 -2.93405 1.34585 0
M  V30 591 H 53.3727 -1.67763 3.41409 0
M  V30 592 H 54.6847 -2.39457 4.37563 0
M  V30 593 H 53.8387 -4.69046 3.84812 0
M  V30 594 H 52.5777 -4.00282 2.78614 0
M  V30 595 H 51.5827 -2.78289 4.74168 0
M  V30 596 H 52.8077 -3.50157 5.81865 0
M  V30 597 H 50.7537 -5.04655 4.19117 0
M  V30 598 H 50.6707 -4.73443 5.89396 0
M  V30 599 H 51.9387 -5.74549 5.26795 0
M  V30 600 N 56.1678 -1.49265 -0.50573 0
M  V30 601 C 57.0778 -1.68312 -1.63427 0
M  V30 602 C 58.0938 -0.565682 -1.64548 0
M  V30 603 O 59.2698 -0.839801 -1.83055 0
M  V30 604 C 56.3348 -1.74107 -2.99813 0
M  V30 605 C 55.3958 -2.97653 -3.09356 0
M  V30 606 C 54.6288 -3.03163 -4.39236 0
M  V30 607 O 54.8518 -2.16396 -5.27758 0
M  V30 608 O 53.7858 -3.9558 -4.53652 0
M  V30 609 H 57.6118 -2.63907 -1.50289 0
M  V30 610 H 55.1968 -1.32951 -0.681502 0
M  V30 611 H 57.0788 -1.803 -3.80881 0
M  V30 612 H 55.7538 -0.816901 -3.13223 0
M  V30 613 H 54.6608 -2.96981 -2.27493 0
M  V30 614 H 55.9938 -3.89535 -3.00871 0
M  V30 615 N 57.6459 0.756429 -1.3826 0
M  V30 616 C 58.8739 1.54565 -1.3754 0
M  V30 617 C 59.2889 1.88767 0.0355331 0
M  V30 618 O 58.6459 1.52572 1.0014 0
M  V30 619 C 58.6969 2.84654 -2.22833 0
M  V30 620 O 58.4179 2.51912 -3.5843 0
M  V30 621 C 59.9189 3.78807 -2.30261 0
M  V30 622 H 57.1389 0.478353 -0.470553 0
M  V30 623 H 59.6829 0.936381 -1.81803 0
M  V30 624 H 57.8379 3.41965 -1.8204 0
M  V30 625 H 58.2519 3.35325 -4.03308 0
M  V30 626 H 59.7259 4.67045 -2.94233 0
M  V30 627 H 60.2029 4.19038 -1.31545 0
M  V30 628 H 60.8089 3.2742 -2.71433 0
M  V30 629 N 59.124 1.23083 0.984299 0
M  V30 630 C 60.354 1.08556 1.75781 0
M  V30 631 C 60.762 -0.366171 1.85623 0
M  V30 632 O 60.105 -1.26524 1.33182 0
M  V30 633 C 60.167 1.63208 3.20318 0
M  V30 634 C 59.831 3.11922 3.33997 0
M  V30 635 C 60.828 4.09259 3.2063 0
M  V30 636 C 58.513 3.51552 3.58771 0
M  V30 637 C 60.507 5.4421 3.31835 0
M  V30 638 C 58.194 4.86649 3.69616 0
M  V30 639 C 59.192 5.82787 3.56157 0
M  V30 640 O 58.88 7.15431 3.66626 0
M  V30 641 H 58.612 0.380713 0.5586 0
M  V30 642 H 61.166 1.63321 1.2456 0
M  V30 643 H 59.396 1.0286 3.72769 0
M  V30 644 H 61.085 1.44216 3.79416 0
M  V30 645 H 61.851 3.79984 3.01392 0
M  V30 646 H 57.73 2.77239 3.6832 0
M  V30 647 H 61.274 6.1923 3.21247 0
M  V30 648 H 57.171 5.15601 3.88363 0
M  V30 649 H 57.939 7.23127 3.83445 0
M  V30 650 N 60.6021 -1.18246 1.0419 0
M  V30 651 C 61.8501 -1.87886 0.744543 0
M  V30 652 C 62.1711 -1.8082 -0.730006 0
M  V30 653 O 61.4411 -1.22736 -1.52685 0
M  V30 654 H 60.0211 -0.695556 0.272417 0
M  V30 655 H 62.6831 -1.43494 1.31892 0
M  V30 656 H 61.7791 -2.9389 1.05049 0
M  V30 657 N 62.0802 -0.821533 -1.34494 0
M  V30 658 C 63.3292 -0.405355 -1.97585 0
M  V30 659 C 63.6422 1.03677 -1.65863 0
M  V30 660 O 64.8482 1.55679 -2.22433 0
M  V30 661 C 63.3042 -0.673861 -3.53535 0
M  V30 662 C 62.9122 -2.12951 -3.94152 0
M  V30 663 C 64.6562 -0.32378 -4.23263 0
M  V30 664 C 62.5632 -2.34298 -5.43009 0
M  V30 665 H 61.4932 -0.147836 -0.739365 0
M  V30 666 H 64.1442 -1.00769 -1.53355 0
M  V30 667 H 62.5262 -0.00137554 -3.96 0
M  V30 668 H 63.7002 -2.84104 -3.62797 0
M  V30 669 H 62.0152 -2.44089 -3.37356 0
M  V30 670 H 64.6122 -0.461126 -5.32708 0
M  V30 671 H 64.9552 0.731586 -4.09821 0
M  V30 672 H 65.4882 -0.950786 -3.8627 0
M  V30 673 H 62.2272 -3.38335 -5.61435 0
M  V30 674 H 61.7472 -1.67687 -5.75883 0
M  V30 675 H 63.4262 -2.16588 -6.09671 0
M  V30 676 N 63.5583 1.46682 -0.576371 0
M  V30 677 C 64.7833 2.07304 -0.0630475 0
M  V30 678 C 65.2083 1.42329 1.2298 0
M  V30 679 O 64.5663 0.504865 1.74129 0
M  V30 680 C 64.6143 3.60472 0.095895 0
M  V30 681 O 63.7183 3.95927 1.15394 0
M  V30 682 H 63.0593 0.661288 -0.0599463 0
M  V30 683 H 65.5893 1.88417 -0.797511 0
M  V30 684 H 65.5993 4.06865 0.304071 0
M  V30 685 H 64.2743 4.07157 -0.84828 0
M  V30 686 H 62.8513 3.61252 0.924724 0
M  V30 687 N 65.0364 0.313813 1.54444 0
M  V30 688 C 65.9864 -0.571898 2.20711 0
M  V30 689 C 66.9704 -1.08913 1.18435 0
M  V30 690 O 68.1624 -1.02777 1.44104 0
M  V30 691 C 65.2914 -1.7371 2.96108 0
M  V30 692 C 64.3774 -1.23522 4.05713 0
M  V30 693 N 64.7684 -0.452288 5.03774 0
M  V30 694 C 63.0664 -1.51482 4.19487 0
M  V30 695 C 63.7674 -0.183438 5.81411 0
M  V30 696 N 62.7434 -0.766845 5.38164 0
M  V30 697 H 66.5454 0.0336802 2.93881 0
M  V30 698 H 64.0594 0.119192 1.61962 0
M  V30 699 H 66.0564 -2.38329 3.4206 0
M  V30 700 H 64.7164 -2.34625 2.24458 0
M  V30 701 H 65.7274 -0.0960131 5.17811 0
M  V30 702 H 62.4044 -2.13053 3.59047 0
M  V30 703 H 63.7944 0.446216 6.70417 0
M  V30 704 N 66.5145 -1.57545 0.0417849 0
M  V30 705 C 67.7635 -1.91494 -0.633492 0
M  V30 706 C 68.0765 -0.921084 -1.72556 0
M  V30 707 O 69.2825 -1.15228 -2.45835 0
M  V30 708 C 67.7385 -3.40072 -1.17808 0
M  V30 709 C 67.3465 -4.47843 -0.118633 0
M  V30 710 C 69.0905 -3.8307 -1.82915 0
M  V30 711 C 66.9975 -5.87529 -0.675578 0
M  V30 712 H 65.9275 -0.714653 -0.24039 0
M  V30 713 H 68.5785 -1.83175 0.109148 0
M  V30 714 H 66.9605 -3.43364 -1.97274 0
M  V30 715 H 68.1345 -4.56128 0.654494 0
M  V30 716 H 66.4495 -4.14128 0.434414 0
M  V30 717 H 69.0465 -4.84794 -2.25563 0
M  V30 718 H 69.3895 -3.1881 -2.67705 0
M  V30 719 H 69.9225 -3.82255 -1.10119 0
M  V30 720 H 66.6615 -6.55362 0.134475 0
M  V30 721 H 66.1815 -5.82824 -1.4169 0
M  V30 722 H 67.8605 -6.36491 -1.1614 0
M  V30 723 N 67.9926 0.231505 -1.5589 0
M  V30 724 C 69.2206 0.974505 -1.82513 0
M  V30 725 C 69.6356 1.78344 -0.619591 0
M  V30 726 O 68.9926 1.77792 0.411848 0
M  V30 727 C 69.0436 1.90007 -3.07538 0
M  V30 728 O 68.7646 1.12385 -4.2344 0
M  V30 729 C 70.2656 2.75779 -3.47075 0
M  V30 730 H 67.4856 0.286065 -0.606966 0
M  V30 731 H 70.0296 0.249739 -2.02969 0
M  V30 732 H 68.1846 2.57891 -2.89086 0
M  V30 733 H 68.5986 1.75125 -4.944 0
M  V30 734 H 70.0726 3.36443 -4.37619 0
M  V30 735 H 70.5496 3.47672 -2.68367 0
M  V30 736 H 71.1556 2.13323 -3.67931 0
M  V30 737 N 69.4707 1.49531 0.497807 0
M  V30 738 C 70.8867 1.36365 0.829266 0
M  V30 739 C 71.0867 0.399184 1.97506 0
M  V30 740 O 70.1427 -0.167977 2.51941 0
M  V30 741 C 71.4557 2.77153 1.16647 0
M  V30 742 C 73.0037 2.85877 1.27449 0
M  V30 743 C 73.4787 4.2744 1.64497 0
M  V30 744 N 74.9697 4.30265 1.7154 0
M  V30 745 C 75.7047 5.3677 2.01656 0
M  V30 746 N 75.2007 6.53516 2.29976 0
M  V30 747 N 76.9937 5.24189 2.02934 0
M  V30 748 H 69.1447 2.10831 -0.257703 0
M  V30 749 H 71.4077 0.946534 -0.0527091 0
M  V30 750 H 71.1137 3.49442 0.397872 0
M  V30 751 H 70.9877 3.12722 2.10915 0
M  V30 752 H 73.3747 2.13824 2.0338 0
M  V30 753 H 73.4557 2.53887 0.312244 0
M  V30 754 H 73.0997 5.00021 0.891151 0
M  V30 755 H 73.0297 4.56896 2.61827 0
M  V30 756 H 75.5207 3.4607 1.51802 0
M  V30 757 H 75.8337 7.30506 2.52153 0
M  V30 758 H 74.1787 6.56737 2.27425 0
M  V30 759 H 77.3697 4.31988 1.80289 0
M  V30 760 H 77.5427 6.07286 2.26071 0
M  V30 761 N 70.9488 -0.749086 1.3866 0
M  V30 762 C 71.8988 -1.85368 1.32751 0
M  V30 763 C 72.8828 -1.59511 0.210945 0
M  V30 764 O 74.0748 -1.71255 0.447299 0
M  V30 765 C 71.2038 -3.23131 1.15935 0
M  V30 766 C 70.2898 -3.54864 2.32233 0
M  V30 767 N 70.6808 -3.57625 3.57684 0
M  V30 768 C 68.9788 -3.85154 2.24883 0
M  V30 769 C 69.6798 -3.86753 4.34508 0
M  V30 770 N 68.6558 -4.03812 3.63918 0
M  V30 771 H 72.4578 -1.85787 2.27729 0
M  V30 772 H 69.9718 -0.946658 1.31955 0
M  V30 773 H 71.9688 -4.02185 1.09786 0
M  V30 774 H 70.6288 -3.23961 0.218947 0
M  V30 775 H 71.6398 -3.39276 3.91295 0
M  V30 776 H 68.3168 -3.93672 1.39027 0
M  V30 777 H 69.7068 -3.95474 5.43185 0
M  V30 778 N 72.4269 -1.23603 -0.977757 0
M  V30 779 C 73.7039 -0.977897 -1.69401 0
M  V30 780 C 74.0839 0.502738 -2.05026 0
M  V30 781 O 73.4319 1.47459 -1.74551 0
M  V30 782 C 73.6419 -1.89077 -2.93345 0
M  V30 783 C 74.9899 -2.15579 -3.65802 0
M  V30 784 O 76.0139 -1.86648 -3.03383 0
M  V30 785 O 74.8729 -2.64658 -4.78141 0
M  V30 786 H 71.9669 -0.369025 -0.740101 0
M  V30 787 H 74.5129 -1.34657 -1.03274 0
M  V30 788 H 73.2849 -2.89158 -2.63634 0
M  V30 789 H 72.9079 -1.52463 -3.67207 0
M  V30 790 N 73.905 1.17692 -1.04816 0
M  V30 791 C 74.838 2.20436 -0.590173 0
M  V30 792 C 75.816 1.58115 0.379244 0
M  V30 793 O 77 1.86228 0.291762 0
M  V30 794 C 74.127 3.38424 0.136817 0
M  V30 795 C 73.173 4.19176 -0.787023 0
M  V30 796 S 74.006 4.84815 -2.27409 0
M  V30 797 C 75.162 6.06195 -1.55817 0
M  V30 798 H 75.395 2.58944 -1.46067 0
M  V30 799 H 72.928 1.28246 -0.859784 0
M  V30 800 H 74.886 4.06798 0.550076 0
M  V30 801 H 73.547 2.98312 0.983299 0
M  V30 802 H 72.74 5.03499 -0.224681 0
M  V30 803 H 72.342 3.56219 -1.13947 0
M  V30 804 H 74.634 6.72078 -0.855387 0
M  V30 805 H 75.577 6.6695 -2.37873 0
M  V30 806 H 75.985 5.54701 -1.04722 0
M  V30 807 N 75.3831 0.828654 1.34056 0
M  V30 808 C 76.3131 0.269443 2.3194 0
M  V30 809 C 77.2941 -0.617247 1.58506 0
M  V30 810 O 78.4791 -0.542931 1.86456 0
M  V30 811 C 75.6091 -0.564793 3.42677 0
M  V30 812 C 74.5631 0.225241 4.27407 0
M  V30 813 C 73.8891 -0.7321 5.29664 0
M  V30 814 C 75.1891 1.43663 5.02154 0
M  V30 815 H 76.8831 1.08728 2.7896 0
M  V30 816 H 74.4291 0.524283 1.34117 0
M  V30 817 H 76.3821 -0.966233 4.10173 0
M  V30 818 H 75.1061 -1.41574 2.9432 0
M  V30 819 H 73.7651 0.608117 3.61521 0
M  V30 820 H 73.4131 -1.57916 4.77568 0
M  V30 821 H 73.1131 -0.20767 5.87233 0
M  V30 822 H 74.6371 -1.13128 6.00029 0
M  V30 823 H 76.0511 1.1089 5.62473 0
M  V30 824 H 74.4481 1.89711 5.69324 0
M  V30 825 H 75.5181 2.21181 4.31517 0
M  V30 826 N 76.8612 -1.46375 0.584142 0
M  V30 827 C 77.7932 -2.28443 -0.186119 0
M  V30 828 C 78.8062 -1.38596 -0.854115 0
M  V30 829 O 79.9952 -1.63183 -0.723438 0
M  V30 830 C 77.0952 -3.13671 -1.28311 0
M  V30 831 C 76.2682 -4.31652 -0.706758 0
M  V30 832 C 75.3272 -4.98267 -1.69163 0
M  V30 833 O 74.3532 -5.55815 -1.22712 0
M  V30 834 N 75.5552 -4.95408 -3.02575 0
M  V30 835 H 78.3202 -2.9519 0.517986 0
M  V30 836 H 75.8812 -1.56303 0.42201 0
M  V30 837 H 77.8732 -3.55101 -1.94128 0
M  V30 838 H 76.4432 -2.48989 -1.89005 0
M  V30 839 H 75.6632 -3.93989 0.128908 0
M  V30 840 H 76.9512 -5.07906 -0.301506 0
M  V30 841 H 76.3492 -4.49902 -3.42936 0
M  V30 842 H 74.9062 -5.40774 -3.63877 0
M  V30 843 N 78.3393 -0.321999 -1.54275 0
M  V30 844 C 79.5883 0.281931 -1.9972 0
M  V30 845 C 79.9013 1.53369 -1.21397 0
M  V30 846 O 81.1073 2.21352 -1.57211 0
M  V30 847 C 79.5633 0.5529 -3.55628 0
M  V30 848 C 79.1713 -0.681721 -4.42783 0
M  V30 849 C 80.9153 1.11687 -4.09544 0
M  V30 850 C 78.8223 -0.382742 -5.9016 0
M  V30 851 H 77.7523 0.109124 -0.746062 0
M  V30 852 H 80.4033 -0.43398 -1.78294 0
M  V30 853 H 78.7853 1.32896 -3.73035 0
M  V30 854 H 79.9593 -1.45723 -4.37151 0
M  V30 855 H 78.2743 -1.1658 -3.99748 0
M  V30 856 H 80.8713 1.35515 -5.17242 0
M  V30 857 H 81.2143 2.06575 -3.61431 0
M  V30 858 H 81.7473 0.402032 -3.95763 0
M  V30 859 H 78.4863 -1.30076 -6.42464 0
M  V30 860 H 78.0063 0.355094 -5.98748 0
M  V30 861 H 79.6853 0.00800157 -6.47 0
M  V30 862 N 79.8174 1.5752 -0.0501392 0
M  V30 863 C 81.2284 1.80271 0.485705 0
M  V30 864 C 81.5794 0.96228 1.70981 0
M  V30 865 O 80.7044 0.178578 2.15662 0
M  V30 866 C 81.2994 3.26957 0.887938 0
M  V30 867 C 79.8584 3.5063 1.36877 0
M  V30 868 C 79.0054 2.75165 0.343468 0
M  V30 869 H 81.9564 1.56281 -0.276028 0
M  V30 870 H 81.9774 3.37821 1.75093 0
M  V30 871 H 81.4894 3.881 -0.0031809 0
M  V30 872 H 79.5904 2.94766 2.27911 0
M  V30 873 H 79.7034 4.59343 1.36164 0
M  V30 874 H 78.0674 2.4127 0.816128 0
M  V30 875 H 78.8504 3.39034 -0.539548 0
M  V30 876 N 81.2955 -0.223234 1.56011 0
M  V30 877 C 82.2055 -1.29766 1.95443 0
M  V30 878 C 83.2215 -1.51373 0.858028 0
M  V30 879 O 84.3975 -1.64536 1.16146 0
M  V30 880 C 81.4625 -2.62772 2.26167 0
M  V30 881 C 80.5235 -2.49482 3.49367 0
M  V30 882 C 79.7565 -3.76145 3.78616 0
M  V30 883 O 79.9795 -4.79087 3.09568 0
M  V30 884 O 78.9135 -3.73358 4.72109 0
M  V30 885 H 82.7395 -0.99309 2.87004 0
M  V30 886 H 80.3245 -0.425958 1.43199 0
M  V30 887 H 82.2065 -3.41327 2.47131 0
M  V30 888 H 80.8815 -2.92913 1.37781 0
M  V30 889 H 79.7885 -1.69133 3.33684 0
M  V30 890 H 81.1215 -2.2428 4.38131 0
M  V30 891 N 82.7736 -1.49793 -0.48987 0
M  V30 892 C 83.7056 -1.63413 -1.60713 0
M  V30 893 C 84.7186 -0.516329 -1.54395 0
M  V30 894 O 85.9076 -0.788812 -1.60125 0
M  V30 895 C 83.0076 -1.58516 -2.99543 0
M  V30 896 C 82.1806 -2.86016 -3.30928 0
M  V30 897 C 81.2396 -2.74018 -4.49222 0
M  V30 898 O 80.2656 -3.47964 -4.50455 0
M  V30 899 N 81.4676 -1.86309 -5.4979 0
M  V30 900 H 84.2326 -2.59777 -1.49452 0
M  V30 901 H 81.7936 -1.47022 -0.677955 0
M  V30 902 H 83.7856 -1.48128 -3.76617 0
M  V30 903 H 82.3556 -0.69965 -3.0467 0
M  V30 904 H 81.5756 -3.10672 -2.42645 0
M  V30 905 H 82.8636 -3.70521 -3.487 0
M  V30 906 H 82.2616 -1.2551 -5.51601 0
M  V30 907 H 80.8186 -1.81837 -6.25922 0
M  V30 908 N 84.2517 0.741722 -1.39055 0
M  V30 909 C 85.1837 1.8657 -1.33133 0
M  V30 910 C 86.1967 1.61001 -0.241329 0
M  V30 911 O 87.3857 1.7136 -0.499784 0
M  V30 912 C 84.4857 3.22457 -1.04283 0
M  V30 913 C 83.6587 3.75435 -2.24427 0
M  V30 914 C 82.7177 4.89867 -1.92138 0
M  V30 915 O 81.7437 5.03879 -2.64754 0
M  V30 916 N 82.9457 5.73738 -0.88347 0
M  V30 917 H 85.7107 1.92156 -2.29991 0
M  V30 918 H 83.2717 0.922172 -1.3307 0
M  V30 919 H 85.2637 3.9657 -0.807128 0
M  V30 920 H 83.8337 3.12181 -0.161807 0
M  V30 921 H 83.0537 2.92751 -2.6399 0
M  V30 922 H 84.3417 4.07563 -3.04581 0
M  V30 923 H 83.7397 5.64999 -0.281517 0
M  V30 924 H 82.2967 6.47947 -0.707662 0
M  V30 925 N 85.7298 1.2412 0.971189 0
M  V30 926 C 86.6768 1.0305 2.06517 0
M  V30 927 C 87.6468 -0.0550666 1.66009 0
M  V30 928 O 88.8318 0.0988688 1.90544 0
M  V30 929 C 85.9718 0.637653 3.39158 0
M  V30 930 C 85.0848 1.79633 3.92882 0
M  V30 931 C 84.2198 1.34939 5.13775 0
M  V30 932 C 83.2588 2.47823 5.59687 0
M  V30 933 N 82.3958 2.04022 6.71803 0
M  V30 934 H 87.2358 1.96685 2.23873 0
M  V30 935 H 84.7728 0.979694 1.09729 0
M  V30 936 H 86.7308 0.390931 4.15364 0
M  V30 937 H 85.3608 -0.261693 3.21737 0
M  V30 938 H 84.4128 2.15681 3.13346 0
M  V30 939 H 85.7248 2.64466 4.22918 0
M  V30 940 H 84.8788 1.06134 5.97345 0
M  V30 941 H 83.6178 0.471557 4.85415 0
M  V30 942 H 82.6228 2.77392 4.74693 0
M  V30 943 H 83.8478 3.36158 5.90063 0
M  V30 944 H 81.7938 1.18632 6.45184 0
M  V30 945 H 81.7108 2.82409 7.01271 0
M  V30 946 H 82.9788 1.78347 7.58823 0
M  V30 947 N 87.2079 -1.17134 1.05439 0
M  V30 948 C 88.1559 -2.23289 0.651511 0
M  V30 949 C 89.1499 -1.66186 -0.328411 0
M  V30 950 O 90.3559 -1.78949 -0.194206 0
M  V30 951 H 86.7309 -0.726938 0.192523 0
M  V30 952 H 88.7019 -2.54565 1.55689 0
M  V30 953 C 87.4509 -3.47671 0.0448436 0
M  V30 954 H 86.7739 -3.91918 0.78996 0
M  V30 955 H 88.2139 -4.2353 -0.19964 0
M  V30 956 C 86.6729 -3.14453 -1.20918 0
M  V30 957 O 87.2029 -3.29459 -2.29825 0
M  V30 958 N 85.4089 -2.68657 -1.10779 0
M  V30 959 H 84.9559 -2.56646 -0.221526 0
M  V30 960 H 84.9139 -2.46804 -1.9477 0
M  V30 961 N 88.686 -0.835752 -1.33615 0
M  V30 962 C 89.596 -0.269088 -2.33052 0
M  V30 963 C 90.612 0.603251 -1.63208 0
M  V30 964 O 91.788 0.508112 -1.94885 0
M  V30 965 C 88.853 0.549091 -3.42324 0
M  V30 966 C 87.914 -0.347156 -4.27894 0
M  V30 967 C 87.147 0.43207 -5.31948 0
M  V30 968 O 87.37 1.66409 -5.45586 0
M  V30 969 O 86.304 -0.192298 -6.01593 0
M  V30 970 H 90.13 -1.09243 -2.83372 0
M  V30 971 H 87.715 -0.598198 -1.36901 0
M  V30 972 H 89.597 1.01414 -4.09015 0
M  V30 973 H 88.272 1.34955 -2.94226 0
M  V30 974 H 87.179 -0.859979 -3.64081 0
M  V30 975 H 88.512 -1.1123 -4.79467 0
M  V30 976 N 90.1641 1.46063 -0.591896 0
M  V30 977 C 91.1111 2.30399 0.136069 0
M  V30 978 C 92.0811 1.41169 0.875238 0
M  V30 979 O 93.2661 1.70112 0.86409 0
M  V30 980 C 90.4061 3.25804 1.13781 0
M  V30 981 C 89.5191 4.30134 0.401137 0
M  V30 982 C 88.6541 5.12659 1.39121 0
M  V30 983 C 87.6931 6.0873 0.641462 0
M  V30 984 N 86.8301 6.8409 1.58004 0
M  V30 985 H 91.6701 2.92118 -0.589144 0
M  V30 986 H 89.2071 1.43959 -0.302342 0
M  V30 987 H 91.1651 3.79569 1.73156 0
M  V30 988 H 89.7951 2.65872 1.83062 0
M  V30 989 H 88.8471 3.79152 -0.307826 0
M  V30 990 H 90.1591 4.98458 -0.184565 0
M  V30 991 H 89.3131 5.70747 2.05749 0
M  V30 992 H 88.0521 4.44316 2.01084 0
M  V30 993 H 87.0571 5.49786 -0.0385419 0
M  V30 994 H 88.2821 6.79095 0.0270945 0
M  V30 995 H 86.2281 6.18449 2.18761 0
M  V30 996 H 86.1451 7.48709 1.04738 0
M  V30 997 H 87.4131 7.4673 2.23639 0
M  V30 998 N 91.6422 0.330177 1.54103 0
M  V30 999 C 92.8722 -0.271784 2.04805 0
M  V30 1000 C 93.2802 -1.45816 1.20559 0
M  V30 1001 O 92.6232 -1.82247 0.2306 0
M  V30 1002 C 92.6852 -0.763238 3.51305 0
M  V30 1003 C 92.3492 0.301705 4.56003 0
M  V30 1004 C 93.3462 1.13999 5.07248 0
M  V30 1005 C 91.0312 0.451793 5.00264 0
M  V30 1006 C 93.0252 2.11402 6.01322 0
M  V30 1007 C 90.7122 1.42924 5.94151 0
M  V30 1008 C 91.7102 2.25882 6.44567 0
M  V30 1009 O 91.3982 3.21965 7.3661 0
M  V30 1010 H 91.1302 -0.058693 0.673447 0
M  V30 1011 H 93.6842 0.476395 1.99799 0
M  V30 1012 H 91.9142 -1.56244 3.5373 0
M  V30 1013 H 93.6032 -1.28427 3.85047 0
M  V30 1014 H 94.3692 1.03505 4.73827 0
M  V30 1015 H 90.2482 -0.184044 4.60632 0
M  V30 1016 H 93.7922 2.76192 6.40596 0
M  V30 1017 H 89.6892 1.53479 6.26988 0
M  V30 1018 H 90.4572 3.17281 7.54503 0
M  V30 1019 N 93.1203 -1.57491 0.0584922 0
M  V30 1020 C 94.0523 -2.08916 -0.942694 0
M  V30 1021 C 95.0653 -1.0185 -1.27006 0
M  V30 1022 O 96.2543 -1.29398 -1.22957 0
M  V30 1023 C 93.3543 -2.52341 -2.26224 0
M  V30 1024 C 92.5273 -3.82827 -2.1157 0
M  V30 1025 C 91.5863 -4.12487 -3.26712 0
M  V30 1026 O 90.6123 -4.82295 -3.02292 0
M  V30 1027 N 91.8143 -3.64978 -4.5141 0
M  V30 1028 H 94.5793 -2.95437 -0.503722 0
M  V30 1029 H 92.1403 -1.61397 -0.12757 0
M  V30 1030 H 94.1323 -2.69254 -3.02133 0
M  V30 1031 H 92.7023 -1.7103 -2.61663 0
M  V30 1032 H 91.9223 -3.75425 -1.20208 0
M  V30 1033 H 93.2103 -4.68263 -1.99015 0
M  V30 1034 H 92.6083 -3.08558 -4.7414 0
M  V30 1035 H 91.1653 -3.87115 -5.2439 0
M  V30 1036 N 94.5984 0.214957 -1.56127 0
M  V30 1037 C 95.8444 0.939762 -1.79712 0
M  V30 1038 C 96.1774 1.83723 -0.629247 0
M  V30 1039 O 95.4524 1.90925 0.371197 0
M  V30 1040 C 95.7354 1.77306 -3.13424 0
M  V30 1041 C 95.5884 0.90164 -4.40671 0
M  V30 1042 C 96.9074 2.74956 -3.43638 0
M  V30 1043 H 94.0264 0.340214 -0.653776 0
M  V30 1044 H 96.6684 0.20824 -1.88855 0
M  V30 1045 H 94.8184 2.39673 -3.0576 0
M  V30 1046 H 96.4904 0.294206 -4.60361 0
M  V30 1047 H 94.7334 0.207368 -4.33304 0
M  V30 1048 H 95.4044 1.51923 -5.30682 0
M  V30 1049 H 97.8804 2.22724 -3.51473 0
M  V30 1050 H 96.7564 3.30358 -4.38355 0
M  V30 1051 H 97.0174 3.53023 -2.66134 0
M  V30 1052 N 96.0765 1.50051 0.48192 0
M  V30 1053 C 97.4875 1.5348 1.06305 0
M  V30 1054 C 97.8385 0.331997 1.93371 0
M  V30 1055 O 96.9635 -0.556256 2.09129 0
M  V30 1056 C 97.5585 2.7813 1.93466 0
M  V30 1057 C 96.1175 2.84275 2.46707 0
M  V30 1058 C 95.2645 2.47637 1.24785 0
M  V30 1059 H 98.2155 1.56472 0.264995 0
M  V30 1060 H 98.2365 2.59372 2.78399 0
M  V30 1061 H 97.7485 3.65654 1.30072 0
M  V30 1062 H 95.8495 2.01077 3.13686 0
M  V30 1063 H 95.9625 3.8691 2.82555 0
M  V30 1064 H 94.3265 1.99835 1.57918 0
M  V30 1065 H 95.1095 3.37457 0.630694 0
M  V30 1066 N 97.5546 -0.734337 1.39446 0
M  V30 1067 C 98.4646 -1.87879 1.40495 0
M  V30 1068 C 99.4806 -1.714 0.299672 0
M  V30 1069 O 100.657 -1.93991 0.541249 0
M  V30 1070 C 97.7216 -3.23477 1.24754 0
M  V30 1071 C 96.7826 -3.52344 2.45259 0
M  V30 1072 C 96.0156 -4.81473 2.30259 0
M  V30 1073 O 96.2386 -5.55237 1.30643 0
M  V30 1074 O 95.1726 -5.10254 3.19256 0
M  V30 1075 H 98.9986 -1.89949 2.36966 0
M  V30 1076 H 96.5836 -0.882243 1.20569 0
M  V30 1077 H 98.4656 -4.04509 1.18111 0
M  V30 1078 H 97.1406 -3.22176 0.313781 0
M  V30 1079 H 96.0476 -2.71396 2.57478 0
M  V30 1080 H 97.3806 -3.58426 3.37331 0
M  V30 1081 N 99.0327 -1.24633 -0.964593 0
M  V30 1082 C 100.28 -1.08788 -1.70796 0
M  V30 1083 C 100.608 0.372783 -1.90894 0
M  V30 1084 O 99.8627 1.29167 -1.47018 0
M  V30 1085 C 100.162 -1.7763 -3.10133 0
M  V30 1086 C 99.8277 -3.27557 -3.09866 0
M  V30 1087 C 98.4897 -3.6846 -3.09501 0
M  V30 1088 C 100.842 -4.23389 -3.03959 0
M  V30 1089 C 98.1697 -5.03624 -3.00965 0
M  V30 1090 C 100.522 -5.58565 -2.96965 0
M  V30 1091 C 99.1857 -5.98809 -2.9493 0
M  V30 1092 H 98.4557 -0.398084 -0.624988 0
M  V30 1093 H 101.103 -1.54777 -1.12767 0
M  V30 1094 H 99.4077 -1.24044 -3.71645 0
M  V30 1095 H 101.105 -1.62832 -3.66451 0
M  V30 1096 H 97.6947 -2.95006 -3.10917 0
M  V30 1097 H 101.879 -3.92787 -3.03368 0
M  V30 1098 H 97.1347 -5.33998 -2.97752 0
M  V30 1099 H 101.309 -6.32523 -2.91354 0
M  V30 1100 H 98.9357 -7.03505 -2.88071 0
M  V30 1101 N 100.511 1.16574 -1.06058 0
M  V30 1102 C 101.788 1.83048 -0.689416 0
M  V30 1103 C 102.168 1.94122 0.829443 0
M  V30 1104 O 101.516 1.48249 1.7388 0
M  V30 1105 C 101.726 3.20186 -1.38859 0
M  V30 1106 C 103.074 3.95989 -1.53226 0
M  V30 1107 O 104.098 3.29696 -1.3483 0
M  V30 1108 O 102.957 5.14813 -1.83384 0
M  V30 1109 H 100.051 0.790258 -0.243764 0
M  V30 1110 H 102.597 1.23797 -1.16071 0
M  V30 1111 H 101.369 3.07146 -2.4244 0
M  V30 1112 H 100.992 3.87112 -0.907216 0
M  V30 1113 N 101.989 0.842826 1.3317 0
M  V30 1114 C 103.214 0.453129 2.02389 0
M  V30 1115 C 103.639 -0.939105 1.6298 0
M  V30 1116 O 102.997 -1.61472 0.8244 0
M  V30 1117 C 103.045 0.586094 3.55805 0
M  V30 1118 O 102.149 -0.386029 4.10589 0
M  V30 1119 H 101.49 0.183664 0.638094 0
M  V30 1120 H 104.02 1.13875 1.69981 0
M  V30 1121 H 104.03 0.469209 4.05293 0
M  V30 1122 H 102.705 1.6014 3.83833 0
M  V30 1123 H 101.282 -0.226371 3.72212 0
M  V30 1124 N 103.467 -1.45747 0.599634 0
M  V30 1125 C 104.692 -2.07178 0.0960198 0
M  V30 1126 C 105.117 -1.44268 -1.207 0
M  V30 1127 O 104.475 -0.532503 -1.73303 0
M  V30 1128 C 104.523 -3.60579 -0.0385348 0
M  V30 1129 O 103.627 -3.97713 -1.0908 0
M  V30 1130 H 102.968 -0.660251 0.0704593 0
M  V30 1131 H 105.498 -1.87124 0.827385 0
M  V30 1132 H 105.508 -4.07298 -0.239304 0
M  V30 1133 H 104.183 -4.05756 0.912947 0
M  V30 1134 H 102.76 -3.62678 -0.867135 0
M  V30 1135 N 104.945 -0.338344 -1.53925 0
M  V30 1136 C 106.173 0.261298 -2.05243 0
M  V30 1137 C 106.588 1.44625 -1.21363 0
M  V30 1138 O 105.945 1.80811 -0.247736 0
M  V30 1139 C 105.996 0.681412 -3.5502 0
M  V30 1140 O 105.717 -0.456414 -4.35716 0
M  V30 1141 C 107.218 1.34232 -4.22489 0
M  V30 1142 H 104.438 0.0513685 -0.669031 0
M  V30 1143 H 106.982 -0.488822 -1.98572 0
M  V30 1144 H 105.137 1.38148 -3.61931 0
M  V30 1145 H 105.551 -0.122564 -5.24357 0
M  V30 1146 H 107.025 1.58708 -5.28693 0
M  V30 1147 H 107.502 2.29426 -3.74514 0
M  V30 1148 H 108.108 0.684424 -4.19757 0
M  V30 1149 N 106.423 1.57458 -0.0668435 0
M  V30 1150 C 107.672 1.92477 0.602947 0
M  V30 1151 C 107.985 0.948419 1.71068 0
M  V30 1152 O 109.191 1.19124 2.43971 0
M  V30 1153 C 107.647 3.41903 1.12383 0
M  V30 1154 C 107.255 4.47975 0.04737 0
M  V30 1155 C 108.999 3.85931 1.76797 0
M  V30 1156 C 106.906 5.88529 0.582022 0
M  V30 1157 H 105.836 0.718387 0.22899 0
M  V30 1158 H 108.487 1.82978 -0.138276 0
M  V30 1159 H 106.869 3.46459 1.91787 0
M  V30 1160 H 108.043 4.55029 -0.726978 0
M  V30 1161 H 106.358 4.13384 -0.500243 0
M  V30 1162 H 108.955 4.88322 2.17821 0
M  V30 1163 H 109.298 3.23029 2.62599 0
M  V30 1164 H 109.831 3.83958 1.04024 0
M  V30 1165 H 106.57 6.55065 -0.238721 0
M  V30 1166 H 106.09 5.85004 1.324 0
M  V30 1167 H 107.769 6.38258 1.05999 0
M  V30 1168 N 107.901 -0.206675 1.56239 0
M  V30 1169 C 108.848 -1.25617 1.93621 0
M  V30 1170 C 109.818 -1.45824 0.795274 0
M  V30 1171 O 111.003 -1.59148 1.05245 0
M  V30 1172 C 108.143 -2.59839 2.27107 0
M  V30 1173 C 107.256 -2.47308 3.54207 0
M  V30 1174 C 106.391 -3.74155 3.7707 0
M  V30 1175 C 105.43 -3.56407 4.97635 0
M  V30 1176 N 104.567 -4.75238 5.1681 0
M  V30 1177 H 109.407 -0.930383 2.83104 0
M  V30 1178 H 106.944 -0.448065 1.4011 0
M  V30 1179 H 108.902 -3.38021 2.44535 0
M  V30 1180 H 107.532 -2.90485 1.40778 0
M  V30 1181 H 106.584 -1.60483 3.4489 0
M  V30 1182 H 107.896 -2.30122 4.42544 0
M  V30 1183 H 107.05 -4.60778 3.94675 0
M  V30 1184 H 105.789 -3.94282 2.87042 0
M  V30 1185 H 104.794 -2.68168 4.79964 0
M  V30 1186 H 106.019 -3.37736 5.89161 0
M  V30 1187 H 103.965 -4.95651 4.29728 0
M  V30 1188 H 103.882 -4.60835 5.99306 0
M  V30 1189 H 105.15 -5.63246 5.38864 0
M  V30 1190 N 109.379 -1.50304 -0.473955 0
M  V30 1191 C 110.327 -1.69482 -1.59307 0
M  V30 1192 C 111.321 -0.560669 -1.59853 0
M  V30 1193 O 112.527 -0.741087 -1.64036 0
M  V30 1194 H 108.902 -0.534892 -0.528578 0
M  V30 1195 H 110.873 -2.63364 -1.40293 0
M  V30 1196 C 109.622 -1.80354 -2.97267 0
M  V30 1197 H 108.945 -2.67012 -2.97564 0
M  V30 1198 H 110.385 -1.97798 -3.75036 0
M  V30 1199 C 108.844 -0.55448 -3.32306 0
M  V30 1200 O 109.374 0.307661 -4.0052 0
M  V30 1201 N 107.58 -0.409354 -2.87702 0
M  V30 1202 H 107.127 -1.11196 -2.32364 0
M  V30 1203 H 107.085 0.425223 -3.11511 0
M  V30 1204 N 110.857 0.726932 -1.39834 0
M  V30 1205 C 112.106 1.48214 -1.36805 0
M  V30 1206 C 112.419 1.95576 0.0305291 0
M  V30 1207 O 113.625 2.7088 0.183417 0
M  V30 1208 C 112.081 2.67854 -2.40379 0
M  V30 1209 C 111.689 2.27408 -3.85992 0
M  V30 1210 C 113.433 3.45641 -2.46439 0
M  V30 1211 C 111.34 3.43819 -4.81189 0
M  V30 1212 H 110.27 0.556606 -0.508631 0
M  V30 1213 H 112.921 0.792216 -1.65518 0
M  V30 1214 H 111.303 3.3896 -2.04749 0
M  V30 1215 H 112.477 1.63795 -4.30706 0
M  V30 1216 H 110.792 1.62692 -3.83302 0
M  V30 1217 H 113.389 4.32244 -3.14753 0
M  V30 1218 H 113.732 3.88669 -1.49139 0
M  V30 1219 H 114.265 2.8157 -2.81004 0
M  V30 1220 H 111.004 3.05834 -5.79781 0
M  V30 1221 H 110.524 4.06385 -4.41148 0
M  V30 1222 H 112.203 4.10043 -5.00474 0
M  V30 1223 N 112.336 1.25143 0.95797 0
M  V30 1224 C 113.561 1.12521 1.74223 0
M  V30 1225 C 113.986 -0.317402 1.85403 0
M  V30 1226 O 113.344 -1.2299 1.33204 0
M  V30 1227 C 113.392 1.78062 3.1357 0
M  V30 1228 O 112.496 1.058 3.98598 0
M  V30 1229 H 111.837 0.39304 0.535178 0
M  V30 1230 H 114.367 1.65641 1.201 0
M  V30 1231 H 114.377 1.84213 3.64046 0
M  V30 1232 H 113.052 2.83021 3.04749 0
M  V30 1233 H 111.629 1.07506 3.57067 0
M  V30 1234 N 113.814 -1.1601 1.06675 0
M  V30 1235 C 115.039 -1.91068 0.806706 0
M  V30 1236 C 115.464 -1.77112 -0.633485 0
M  V30 1237 O 114.822 -1.09908 -1.44187 0
M  V30 1238 C 114.87 -3.39655 1.21106 0
M  V30 1239 O 113.974 -4.10893 0.352189 0
M  V30 1240 H 113.315 -0.595125 0.294486 0
M  V30 1241 H 115.845 -1.46955 1.42356 0
M  V30 1242 H 115.855 -3.90434 1.18428 0
M  V30 1243 H 114.53 -3.49132 2.26008 0
M  V30 1244 H 113.107 -3.70285 0.440868 0
M  V30 1245 N 115.292 -0.849877 -1.32721 0
M  V30 1246 C 116.255 -0.296122 -2.27279 0
M  V30 1247 C 117.255 0.541458 -1.5141 0
M  V30 1248 O 118.445 0.353658 -1.70572 0
M  V30 1249 C 115.577 0.581579 -3.35902 0
M  V30 1250 H 116.77 -1.13064 -2.77771 0
M  V30 1251 H 114.323 -0.62383 -1.43311 0
M  V30 1252 H 115.058 1.43809 -2.9067 0
M  V30 1253 H 114.843 -0.0178814 -3.92096 0
M  V30 1254 H 116.333 0.961951 -4.0637 0
M  V30 1255 N 116.77 1.45427 -0.607355 0
M  V30 1256 C 117.717 2.3053 0.111625 0
M  V30 1257 C 118.687 1.4209 0.860216 0
M  V30 1258 O 119.872 1.71019 0.845998 0
M  V30 1259 C 117.012 3.26992 1.10319 0
M  V30 1260 C 116.125 4.30535 0.355493 0
M  V30 1261 C 115.26 5.14105 1.33676 0
M  V30 1262 C 114.299 6.09376 0.576862 0
M  V30 1263 N 113.436 6.85727 1.5074 0
M  V30 1264 H 118.276 2.91477 -0.620093 0
M  V30 1265 H 115.813 1.43631 -0.317594 0
M  V30 1266 H 117.771 3.81385 1.6912 0
M  V30 1267 H 116.401 2.67799 1.80232 0
M  V30 1268 H 115.453 3.78805 -0.348023 0
M  V30 1269 H 116.765 4.98235 -0.237423 0
M  V30 1270 H 115.919 5.72897 1.99684 0
M  V30 1271 H 114.658 4.46423 1.9636 0
M  V30 1272 H 113.663 5.49715 -0.0968519 0
M  V30 1273 H 114.888 6.79085 -0.0449341 0
M  V30 1274 H 112.834 6.20735 2.12189 0
M  V30 1275 H 112.751 7.49778 0.967913 0
M  V30 1276 H 114.019 7.4906 2.15706 0
M  V30 1277 N 118.248 0.346503 1.53744 0
M  V30 1278 C 119.496 -0.248612 2.00565 0
M  V30 1279 C 119.817 -1.5083 1.23593 0
M  V30 1280 O 119.087 -1.92858 0.343912 0
M  V30 1281 H 117.667 -0.0948564 0.740953 0
M  V30 1282 H 120.329 0.468341 1.89189 0
M  V30 1283 H 119.425 -0.488994 3.08245 0
M  V30 1284 N 119.726 -1.57421 0.075193 0
M  V30 1285 C 120.656 -2.15942 -0.888324 0
M  V30 1286 C 121.637 -1.08737 -1.30806 0
M  V30 1287 O 122.822 -1.36787 -1.37851 0
M  V30 1288 C 119.952 -2.72379 -2.1547 0
M  V30 1289 C 118.906 -3.8478 -1.87425 0
M  V30 1290 C 118.232 -4.27834 -3.20721 0
M  V30 1291 C 119.532 -5.08869 -1.17684 0
M  V30 1292 H 121.226 -2.96705 -0.400799 0
M  V30 1293 H 118.772 -1.42723 -0.191342 0
M  V30 1294 H 120.725 -3.11965 -2.83295 0
M  V30 1295 H 119.449 -1.88841 -2.6647 0
M  V30 1296 H 118.108 -3.45703 -1.22004 0
M  V30 1297 H 117.756 -3.41214 -3.6957 0
M  V30 1298 H 117.456 -5.03605 -3.02746 0
M  V30 1299 H 118.98 -4.70039 -3.89738 0
M  V30 1300 H 120.394 -5.4575 -1.75584 0
M  V30 1301 H 118.791 -5.8994 -1.09956 0
M  V30 1302 H 119.861 -4.84648 -0.156453 0
M  V30 1303 N 121.204 0.198386 -1.56346 0
M  V30 1304 C 122.481 0.944982 -1.71258 0
M  V30 1305 C 122.861 2.0151 -0.629048 0
M  V30 1306 O 122.209 2.25639 0.360473 0
M  V30 1307 C 122.419 1.5344 -3.1346 0
M  V30 1308 C 123.767 2.01778 -3.73591 0
M  V30 1309 O 124.791 1.63288 -3.16568 0
M  V30 1310 O 123.65 2.72594 -4.73661 0
M  V30 1311 H 120.744 0.442939 -0.69838 0
M  V30 1312 H 123.29 0.188342 -1.68652 0
M  V30 1313 H 122.062 0.762869 -3.83792 0
M  V30 1314 H 121.685 2.35596 -3.20282 0
M  V30 1315 N 122.682 1.50554 0.465978 0
M  V30 1316 C 123.928 1.62038 1.21949 0
M  V30 1317 C 124.261 0.322116 1.9151 0
M  V30 1318 O 123.536 -0.676723 1.82348 0
M  V30 1319 C 123.819 2.80421 2.25912 0
M  V30 1320 C 123.672 4.20144 1.60622 0
M  V30 1321 C 124.991 2.94354 3.27176 0
M  V30 1322 H 122.11 0.589752 0.441998 0
M  V30 1323 H 124.752 1.82956 0.51257 0
M  V30 1324 H 122.902 2.62717 2.86203 0
M  V30 1325 H 124.574 4.49449 1.03889 0
M  V30 1326 H 122.817 4.24165 0.909211 0
M  V30 1327 H 123.488 4.98914 2.36196 0
M  V30 1328 H 125.964 3.10578 2.76913 0
M  V30 1329 H 124.84 3.788 3.97242 0
M  V30 1330 H 125.101 2.05186 3.916 0
M  V30 1331 N 124.16 -0.719506 1.40217 0
M  V30 1332 C 125.406 -1.48034 1.39491 0
M  V30 1333 C 125.761 -1.92399 -0.00443536 0
M  V30 1334 O 125.054 -1.64993 -0.974061 0
M  V30 1335 C 125.248 -2.72271 2.31524 0
M  V30 1336 C 125.077 -2.40055 3.80268 0
M  V30 1337 C 123.847 -2.31588 4.49105 0
M  V30 1338 C 126.045 -2.04581 4.71859 0
M  V30 1339 N 124.027 -1.92006 5.83101 0
M  V30 1340 C 125.398 -1.75568 5.94623 0
M  V30 1341 C 127.453 -1.91183 4.59732 0
M  V30 1342 C 126.156 -1.34505 7.06612 0
M  V30 1343 C 128.182 -1.51524 5.71659 0
M  V30 1344 C 127.544 -1.23406 6.93506 0
M  V30 1345 H 123.643 -0.539927 0.565688 0
M  V30 1346 H 126.227 -0.834764 1.75897 0
M  V30 1347 H 124.398 -3.34584 1.97251 0
M  V30 1348 H 126.13 -3.38584 2.21682 0
M  V30 1349 H 122.885 -2.49199 4.02737 0
M  V30 1350 H 123.309 -1.74764 6.54054 0
M  V30 1351 H 127.951 -2.11584 3.66049 0
M  V30 1352 H 125.669 -1.12846 8.00182 0
M  V30 1353 H 129.255 -1.41741 5.6427 0
M  V30 1354 H 128.135 -0.931788 7.78645 0
M  V30 1355 N 125.638 -1.25649 -0.95132 0
M  V30 1356 C 126.915 -1.01361 -1.67288 0
M  V30 1357 C 127.295 0.459135 -2.06046 0
M  V30 1358 O 126.643 1.43723 -1.7764 0
M  V30 1359 C 126.853 -1.95256 -2.89268 0
M  V30 1360 C 128.201 -2.23289 -3.61147 0
M  V30 1361 O 129.225 -1.93041 -2.99355 0
M  V30 1362 O 128.084 -2.74741 -4.72419 0
M  V30 1363 H 125.178 -0.38464 -0.732107 0
M  V30 1364 H 127.724 -1.36817 -1.00395 0
M  V30 1365 H 126.496 -2.94685 -2.57442 0
M  V30 1366 H 126.119 -1.60218 -3.6389 0
M  V30 1367 N 127.117 1.15442 -1.07289 0
M  V30 1368 C 128.342 1.90638 -0.816828 0
M  V30 1369 C 128.767 1.77445 0.624083 0
M  V30 1370 O 128.125 1.10671 1.43602 0
M  V30 1371 C 128.173 3.39008 -1.22906 0
M  V30 1372 O 127.277 4.10701 -0.373975 0
M  V30 1373 H 126.618 0.593555 -0.297638 0
M  V30 1374 H 129.148 1.46198 -1.43134 0
M  V30 1375 H 129.158 3.89801 -1.20497 0
M  V30 1376 H 127.833 3.47929 -2.27856 0
M  V30 1377 H 126.41 3.70046 -0.460499 0
M  V30 1378 N 128.595 0.856903 1.32268 0
M  V30 1379 C 129.841 0.471355 1.97863 0
M  V30 1380 C 130.196 -0.962896 1.66572 0
M  V30 1381 O 129.489 -1.66686 0.944797 0
M  V30 1382 C 129.683 0.649919 3.51441 0
M  V30 1383 C 129.512 2.09997 3.97657 0
M  V30 1384 C 128.282 2.73893 4.2463 0
M  V30 1385 C 130.48 3.07081 4.1256 0
M  V30 1386 N 128.462 4.09786 4.57109 0
M  V30 1387 C 129.833 4.27968 4.48602 0
M  V30 1388 C 131.888 3.03247 3.949 0
M  V30 1389 C 130.591 5.45521 4.68827 0
M  V30 1390 C 132.617 4.20046 4.16311 0
M  V30 1391 C 131.979 5.39692 4.52672 0
M  V30 1392 H 128.078 0.221263 0.750044 0
M  V30 1393 H 130.662 1.10876 1.60045 0
M  V30 1394 H 128.833 0.0421938 3.88377 0
M  V30 1395 H 130.565 0.234044 4.04023 0
M  V30 1396 H 127.32 2.24918 4.16784 0
M  V30 1397 H 127.744 4.7989 4.7753 0
M  V30 1398 H 132.386 2.11863 3.65888 0
M  V30 1399 H 130.104 6.37434 4.96693 0
M  V30 1400 H 133.69 4.18517 4.04147 0
M  V30 1401 H 132.57 6.28566 4.68907 0
M  V30 1402 N 130.073 -1.45103 0.615059 0
M  V30 1403 C 131.484 -1.85654 0.197383 0
M  V30 1404 C 131.835 -1.51433 -1.24749 0
M  V30 1405 O 130.96 -0.944608 -1.94695 0
M  V30 1406 C 131.555 -3.36972 0.351448 0
M  V30 1407 C 130.114 -3.76398 -0.011593 0
M  V30 1408 C 129.261 -2.69024 0.672394 0
M  V30 1409 H 132.212 -1.35797 0.821263 0
M  V30 1410 H 132.233 -3.78239 -0.414227 0
M  V30 1411 H 131.745 -3.61847 1.40314 0
M  V30 1412 H 129.846 -3.5714 -1.06217 0
M  V30 1413 H 129.959 -4.77532 0.387265 0
M  V30 1414 H 128.323 -2.54465 0.109284 0
M  V30 1415 H 129.106 -2.96735 1.72636 0
M  V30 1416 N 131.551 -0.354651 -1.53558 0
M  V30 1417 C 132.481 0.489091 -2.2832 0
M  V30 1418 C 133.462 1.09324 -1.30316 0
M  V30 1419 O 134.647 1.11255 -1.59173 0
M  V30 1420 C 131.777 1.63456 -3.0643 0
M  V30 1421 C 130.731 1.1582 -4.12031 0
M  V30 1422 C 130.057 2.39305 -4.7816 0
M  V30 1423 C 131.357 0.250731 -5.21698 0
M  V30 1424 H 133.051 -0.134614 -2.99097 0
M  V30 1425 H 130.597 -0.0661826 -1.43848 0
M  V30 1426 H 132.55 2.23136 -3.57475 0
M  V30 1427 H 131.274 2.28533 -2.33325 0
M  V30 1428 H 129.933 0.584146 -3.61916 0
M  V30 1429 H 129.581 3.02814 -4.01637 0
M  V30 1430 H 129.281 2.08109 -5.49513 0
M  V30 1431 H 130.805 2.99691 -5.31994 0
M  V30 1432 H 132.219 0.754695 -5.68311 0
M  V30 1433 H 130.616 0.0301468 -6.00092 0
M  V30 1434 H 131.686 -0.710125 -4.79672 0
M  V30 1435 N 133.029 1.57378 -0.0835403 0
M  V30 1436 C 133.961 2.10389 0.909338 0
M  V30 1437 C 134.974 1.03858 1.25369 0
M  V30 1438 O 136.163 1.31338 1.20882 0
M  V30 1439 C 133.263 2.55908 2.2218 0
M  V30 1440 C 132.436 3.86145 2.05453 0
M  V30 1441 C 131.495 4.17633 3.20108 0
M  V30 1442 O 130.521 4.87043 2.94581 0
M  V30 1443 N 131.723 3.72113 4.45547 0
M  V30 1444 H 134.488 2.962 0.456657 0
M  V30 1445 H 132.049 1.61579 0.101877 0
M  V30 1446 H 134.041 2.74027 2.97811 0
M  V30 1447 H 132.611 1.75171 2.58909 0
M  V30 1448 H 131.831 3.7729 1.1422 0
M  V30 1449 H 133.119 4.7137 1.91541 0
M  V30 1450 H 132.517 3.16062 4.69171 0
M  V30 1451 H 131.074 3.95409 5.18165 0
M  V30 1452 N 134.507 -0.190092 1.56449 0
M  V30 1453 C 135.455 -1.25501 1.95837 0
M  V30 1454 C 136.449 -1.4685 0.844485 0
M  V30 1455 O 137.655 -1.47651 1.02952 0
M  V30 1456 H 134.03 -0.421447 0.622805 0
M  V30 1457 H 136.001 -0.895821 2.84636 0
M  V30 1458 C 134.75 -2.59124 2.31841 0
M  V30 1459 H 134.073 -2.43514 3.17082 0
M  V30 1460 H 135.513 -3.32371 2.6326 0
M  V30 1461 C 133.972 -3.16488 1.15486 0
M  V30 1462 O 134.502 -3.99365 0.432535 0
M  V30 1463 N 132.708 -2.75305 0.930349 0
M  V30 1464 H 132.255 -2.08013 1.51948 0
M  V30 1465 H 132.213 -3.14024 0.153634 0
M  V30 1466 N 135.985 -1.50799 -0.457987 0
M  V30 1467 C 136.948 -1.7005 -1.53674 0
M  V30 1468 C 137.948 -0.570881 -1.50325 0
M  V30 1469 O 139.138 -0.838126 -1.52712 0
M  V30 1470 C 136.27 -1.73788 -2.93276 0
M  V30 1471 H 137.463 -2.66306 -1.37917 0
M  V30 1472 H 135.016 -1.40477 -0.685271 0
M  V30 1473 H 135.751 -0.792717 -3.14462 0
M  V30 1474 H 135.536 -2.55864 -2.97113 0
M  V30 1475 H 137.026 -1.90591 -3.71571 0
M  V30 1476 N 137.463 0.71206 -1.40597 0
M  V30 1477 C 138.74 1.46536 -1.29563 0
M  V30 1478 C 139.12 2.10931 0.0844217 0
M  V30 1479 O 138.468 2.00418 1.0975 0
M  V30 1480 C 138.678 2.49821 -2.43701 0
M  V30 1481 C 140.026 3.15551 -2.841 0
M  V30 1482 O 141.05 2.60142 -2.4332 0
M  V30 1483 O 139.909 4.15867 -3.54566 0
M  V30 1484 H 137.003 0.651801 -0.509004 0
M  V30 1485 H 139.549 0.743935 -1.52524 0
M  V30 1486 H 138.321 2.00778 -3.35863 0
M  V30 1487 H 137.944 3.29495 -2.22528 0
M  V30 1488 N 138.941 1.26152 0.944643 0
M  V30 1489 C 140.189 1.11271 1.6871 0
M  V30 1490 C 140.51 -0.345166 1.91921 0
M  V30 1491 O 139.78 -1.24387 1.51343 0
M  V30 1492 H 138.36 0.408783 0.625224 0
M  V30 1493 H 141.022 1.58427 1.1352 0
M  V30 1494 H 140.118 1.62879 2.66227 0
M  V30 1495 N 140.419 -1.14872 1.07899 0
M  V30 1496 C 141.647 -1.89661 0.82683 0
M  V30 1497 C 142.062 -1.78312 -0.620519 0
M  V30 1498 O 141.419 -1.13888 -1.42604 0
M  V30 1499 C 141.47 -3.39817 1.23316 0
M  V30 1500 O 141.191 -3.50845 2.62372 0
M  V30 1501 C 142.692 -4.31615 1.0111 0
M  V30 1502 H 139.912 -0.60092 0.298557 0
M  V30 1503 H 142.456 -1.4551 1.43691 0
M  V30 1504 H 140.611 -3.8161 0.667286 0
M  V30 1505 H 141.025 -4.44076 2.79101 0
M  V30 1506 H 142.499 -5.35367 1.34486 0
M  V30 1507 H 142.976 -4.39169 -0.0522168 0
M  V30 1508 H 143.582 -3.95572 1.56215 0
M  V30 1509 N 141.898 -0.863906 -1.31812 0
M  V30 1510 C 143.144 -0.472535 -1.97218 0
M  V30 1511 C 143.477 0.971394 -1.68159 0
M  V30 1512 O 142.752 1.68309 -0.974798 0
M  V30 1513 C 143.035 -0.723054 -3.52766 0
M  V30 1514 C 142.888 -2.21608 -3.91421 0
M  V30 1515 C 144.207 -0.185522 -4.39709 0
M  V30 1516 H 141.326 -0.173158 -0.71637 0
M  V30 1517 H 143.968 -1.08403 -1.56041 0
M  V30 1518 H 142.118 -0.202577 -3.87971 0
M  V30 1519 H 143.79 -2.80334 -3.66347 0
M  V30 1520 H 142.033 -2.691 -3.40246 0
M  V30 1521 H 142.704 -2.34203 -4.99853 0
M  V30 1522 H 145.18 -0.630726 -4.11292 0
M  V30 1523 H 144.056 -0.390306 -5.47511 0
M  V30 1524 H 144.317 0.912229 -4.32586 0
M  V30 1525 N 143.376 1.44774 -0.622745 0
M  V30 1526 C 144.339 2.29069 0.0774015 0
M  V30 1527 C 145.339 1.4059 0.780461 0
M  V30 1528 O 146.529 1.62551 0.626322 0
M  V30 1529 C 143.661 3.21974 1.12006 0
M  V30 1530 H 144.854 2.92459 -0.663901 0
M  V30 1531 H 142.407 1.51548 -0.382486 0
M  V30 1532 H 143.142 2.63417 1.89162 0
M  V30 1533 H 142.927 3.87168 0.619951 0
M  V30 1534 H 144.417 3.85318 1.60995 0
M  V30 1535 N 144.854 0.36279 1.53368 0
M  V30 1536 C 145.802 -0.500155 2.27159 0
M  V30 1537 C 146.796 -1.08575 1.3003 0
M  V30 1538 O 148.002 -1.02927 1.47668 0
M  V30 1539 H 144.377 -0.180009 0.730138 0
M  V30 1540 H 146.348 0.14401 2.98052 0
M  V30 1541 C 145.097 -1.62937 3.07159 0
M  V30 1542 H 144.42 -1.18806 3.8174 0
M  V30 1543 H 145.86 -2.20795 3.61975 0
M  V30 1544 C 144.319 -2.57007 2.17829 0
M  V30 1545 O 144.849 -3.59752 1.78721 0
M  V30 1546 N 143.055 -2.26131 1.82518 0
M  V30 1547 H 142.602 -1.42616 2.14519 0
M  V30 1548 H 142.56 -2.89327 1.23034 0
M  V30 1549 N 146.332 -1.57332 0.0918853 0
M  V30 1550 C 147.562 -1.98286 -0.580205 0
M  V30 1551 C 147.97 -0.969713 -1.6246 0
M  V30 1552 O 147.313 0.0493501 -1.83634 0
M  V30 1553 C 147.375 -3.35603 -1.28882 0
M  V30 1554 C 147.039 -4.55285 -0.395559 0
M  V30 1555 C 148.036 -5.18687 0.355002 0
M  V30 1556 C 145.721 -5.01314 -0.314556 0
M  V30 1557 C 147.715 -6.26484 1.17458 0
M  V30 1558 C 145.402 -6.08979 0.508677 0
M  V30 1559 C 146.4 -6.71429 1.2519 0
M  V30 1560 O 146.088 -7.77018 2.06151 0
M  V30 1561 H 145.82 -0.656678 -0.160466 0
M  V30 1562 H 148.374 -2.04721 0.16688 0
M  V30 1563 H 146.604 -3.25842 -2.08241 0
M  V30 1564 H 148.293 -3.61026 -1.85512 0
M  V30 1565 H 149.059 -4.84058 0.302134 0
M  V30 1566 H 144.938 -4.5247 -0.882697 0
M  V30 1567 H 148.482 -6.75159 1.75518 0
M  V30 1568 H 144.379 -6.4304 0.563037 0
M  V30 1569 H 145.147 -7.93991 1.98799 0
M  V30 1570 N 147.81 0.181792 -1.56548 0
M  V30 1571 C 148.76 1.22961 -1.92002 0
M  V30 1572 C 149.744 1.40331 -0.787146 0
M  V30 1573 O 150.936 1.42478 -1.05019 0
M  V30 1574 C 148.065 2.57144 -2.27446 0
M  V30 1575 C 147.151 2.43512 -3.47222 0
M  V30 1576 N 147.542 1.99577 -4.64761 0
M  V30 1577 C 145.84 2.74368 -3.51622 0
M  V30 1578 C 146.541 1.98156 -5.46909 0
M  V30 1579 N 145.517 2.40164 -4.8767 0
M  V30 1580 H 149.319 0.881462 -2.8037 0
M  V30 1581 H 146.833 0.390141 -1.57644 0
M  V30 1582 H 148.83 3.32847 -2.51035 0
M  V30 1583 H 147.49 2.92771 -1.40411 0
M  V30 1584 H 148.501 1.70078 -4.89177 0
M  V30 1585 H 145.178 3.14102 -2.75038 0
M  V30 1586 H 146.568 1.65975 -6.51077 0
M  V30 1587 N 149.288 1.51039 0.449983 0
M  V30 1588 C 150.536 1.62759 1.19808 0
M  V30 1589 C 150.857 0.339981 1.92013 0
M  V30 1590 O 150.127 -0.643606 1.85026 0
M  V30 1591 H 148.707 0.599811 0.445237 0
M  V30 1592 H 151.369 1.87914 0.517138 0
M  V30 1593 H 150.465 2.44911 1.93455 0
M  V30 1594 N 150.766 -0.704594 1.40972 0
M  V30 1595 C 151.996 -1.49138 1.42974 0
M  V30 1596 C 152.404 -1.89175 0.0308406 0
M  V30 1597 O 151.747 -1.56734 -0.958138 0
M  V30 1598 C 151.809 -2.79016 2.26694 0
M  V30 1599 C 151.473 -2.61236 3.74973 0
M  V30 1600 C 152.47 -2.27773 4.67349 0
M  V30 1601 C 150.155 -2.77158 4.18914 0
M  V30 1602 C 152.149 -2.10457 6.01653 0
M  V30 1603 C 149.836 -2.59459 5.53285 0
M  V30 1604 C 150.834 -2.26158 6.4447 0
M  V30 1605 O 150.522 -2.08605 7.76363 0
M  V30 1606 H 150.254 -0.466443 0.489292 0
M  V30 1607 H 152.808 -0.8758 1.85793 0
M  V30 1608 H 151.038 -3.42947 1.78673 0
M  V30 1609 H 152.727 -3.40782 2.20504 0
M  V30 1610 H 153.493 -2.15095 4.34694 0
M  V30 1611 H 149.372 -3.02064 3.48251 0
M  V30 1612 H 152.916 -1.84387 6.72791 0
M  V30 1613 H 148.813 -2.71725 5.85522 0
M  V30 1614 H 149.581 -2.23439 7.87412 0
M  V30 1615 N 152.244 -1.26651 -0.937939 0
M  V30 1616 C 153.194 -1.05156 -2.02302 0
M  V30 1617 C 154.178 0.0171233 -1.60891 0
M  V30 1618 O 155.37 -0.200213 -1.75864 0
M  V30 1619 C 152.499 -0.689962 -3.36295 0
M  V30 1620 C 151.585 -1.79626 -3.84181 0
M  V30 1621 N 151.976 -3.03422 -4.04684 0
M  V30 1622 C 150.274 -1.6806 -4.13124 0
M  V30 1623 C 150.975 -3.75345 -4.444 0
M  V30 1624 N 149.951 -3.03051 -4.51288 0
M  V30 1625 H 153.753 -1.99117 -2.1617 0
M  V30 1626 H 151.267 -1.17216 -1.12402 0
M  V30 1627 H 153.264 -0.517112 -4.13681 0
M  V30 1628 H 151.924 0.242139 -3.23796 0
M  V30 1629 H 152.935 -3.39293 -3.91281 0
M  V30 1630 H 149.612 -0.818629 -4.09396 0
M  V30 1631 H 151.002 -4.81691 -4.68427 0
M  V30 1632 N 153.722 1.14298 -1.08507 0
M  V30 1633 C 154.971 1.84708 -0.810305 0
M  V30 1634 C 155.284 1.83903 0.666271 0
M  V30 1635 O 156.49 2.50112 1.05624 0
M  V30 1636 C 154.946 3.31572 -1.39957 0
M  V30 1637 C 154.554 3.40791 -2.90801 0
M  V30 1638 C 156.298 4.07087 -1.20334 0
M  V30 1639 C 154.205 4.81872 -3.4286 0
M  V30 1640 H 153.135 0.691985 -0.299454 0
M  V30 1641 H 155.786 1.28841 -1.30661 0
M  V30 1642 H 154.168 3.87183 -0.830976 0
M  V30 1643 H 155.342 2.95225 -3.53806 0
M  V30 1644 H 153.657 2.78732 -3.0935 0
M  V30 1645 H 156.254 5.11225 -1.56693 0
M  V30 1646 H 156.597 4.16054 -0.143237 0
M  V30 1647 H 157.13 3.57779 -1.73893 0
M  V30 1648 H 153.869 4.78094 -4.48449 0
M  V30 1649 H 153.389 5.27972 -2.84615 0
M  V30 1650 H 155.068 5.50765 -3.39509 0
M  V30 1651 N 155.201 0.870884 1.31352 0
M  V30 1652 C 156.447 0.482987 1.96965 0
M  V30 1653 C 156.78 -0.962462 1.68672 0
M  V30 1654 O 156.055 -1.6779 0.98371 0
M  V30 1655 C 156.338 0.741752 3.52378 0
M  V30 1656 C 156.191 2.2368 3.9024 0
M  V30 1657 C 157.51 0.208838 4.39604 0
M  V30 1658 H 154.629 0.176955 0.715441 0
M  V30 1659 H 157.271 1.09229 1.55464 0
M  V30 1660 H 155.421 0.223149 3.87859 0
M  V30 1661 H 157.093 2.82273 3.64856 0
M  V30 1662 H 155.336 2.70901 3.38814 0
M  V30 1663 H 156.007 2.3685 4.98604 0
M  V30 1664 H 158.483 0.652529 4.10952 0
M  V30 1665 H 157.359 0.419336 5.47296 0
M  V30 1666 H 157.62 -0.889275 4.33064 0
M  V30 1667 N 156.679 -1.44442 0.630414 0
M  V30 1668 C 157.926 -2.02052 0.134617 0
M  V30 1669 C 158.254 -1.49576 -1.24327 0
M  V30 1670 O 157.509 -0.669806 -1.83881 0
M  V30 1671 C 157.808 -3.57332 0.0697835 0
M  V30 1672 C 157.474 -4.29058 1.38635 0
M  V30 1673 C 156.136 -4.4837 1.74694 0
M  V30 1674 C 158.488 -4.69872 2.25543 0
M  V30 1675 C 155.816 -5.05756 2.97369 0
M  V30 1676 C 158.168 -5.28616 3.47487 0
M  V30 1677 C 156.832 -5.46147 3.8377 0
M  V30 1678 H 156.102 -0.739361 0.0492598 0
M  V30 1679 H 158.749 -1.73217 0.816586 0
M  V30 1680 H 157.054 -3.85577 -0.695553 0
M  V30 1681 H 158.751 -3.99637 -0.330344 0
M  V30 1682 H 155.341 -4.14357 1.09574 0
M  V30 1683 H 159.525 -4.54666 1.98979 0
M  V30 1684 H 154.781 -5.17515 3.25558 0
M  V30 1685 H 158.955 -5.59192 4.15063 0
M  V30 1686 H 156.582 -5.9038 4.7891 0
M  V30 1687 N 158.157 -0.370918 -1.53173 0
M  V30 1688 C 159.12 0.460778 -2.24521 0
M  V30 1689 C 160.12 1.00536 -1.25496 0
M  V30 1690 O 161.31 0.890266 -1.49733 0
M  V30 1691 C 158.442 1.64457 -2.98608 0
M  V30 1692 H 159.635 -0.163613 -2.99453 0
M  V30 1693 H 157.188 -0.122699 -1.55818 0
M  V30 1694 H 157.923 2.30691 -2.2793 0
M  V30 1695 H 157.708 1.26099 -3.7127 0
M  V30 1696 H 159.198 2.23384 -3.5283 0
M  V30 1697 N 159.635 1.57281 -0.100228 0
M  V30 1698 C 160.565 2.17328 0.853857 0
M  V30 1699 C 161.546 1.10804 1.2906 0
M  V30 1700 O 162.731 1.38963 1.35657 0
M  V30 1701 C 159.861 2.75772 2.11109 0
M  V30 1702 C 158.815 3.87713 1.81279 0
M  V30 1703 C 158.141 4.32882 3.13874 0
M  V30 1704 C 159.441 5.10677 1.09574 0
M  V30 1705 H 161.135 2.97305 0.353545 0
M  V30 1706 H 158.681 1.43009 0.168612 0
M  V30 1707 H 160.634 3.16433 2.78296 0
M  V30 1708 H 159.358 1.93057 2.63432 0
M  V30 1709 H 158.017 3.476 1.16489 0
M  V30 1710 H 157.665 3.47051 3.64095 0
M  V30 1711 H 157.365 5.08358 2.94696 0
M  V30 1712 H 158.889 4.7618 3.82211 0
M  V30 1713 H 160.303 5.48474 1.66879 0
M  V30 1714 H 158.7 5.91615 1.00557 0
M  V30 1715 H 159.77 4.84835 0.0793299 0
M  V30 1716 N 161.113 -0.173488 1.56642 0
M  V30 1717 C 162.076 -1.19859 1.95362 0
M  V30 1718 C 163.076 -1.37296 0.83704 0
M  V30 1719 O 164.266 -1.34739 1.10413 0
M  V30 1720 C 161.398 -2.56405 2.24654 0
M  V30 1721 H 162.591 -0.867062 2.87092 0
M  V30 1722 H 160.144 -0.415853 1.50666 0
M  V30 1723 H 160.879 -2.94576 1.35631 0
M  V30 1724 H 160.664 -2.45115 3.06041 0
M  V30 1725 H 162.154 -3.30287 2.5554 0
M  V30 1726 N 162.591 -1.51276 -0.441967 0
M  V30 1727 C 163.839 -1.63392 -1.18943 0
M  V30 1728 C 164.16 -0.350159 -1.9183 0
M  V30 1729 O 163.43 0.633784 -1.85364 0
M  V30 1730 H 162.01 -0.602164 -0.442049 0
M  V30 1731 H 164.672 -1.88186 -0.507165 0
M  V30 1732 H 163.768 -2.45934 -1.92154 0
M  V30 1733 N 164.069 0.697108 -1.41344 0
M  V30 1734 C 165.346 1.45154 -1.31109 0
M  V30 1735 C 165.726 2.11009 0.0620449 0
M  V30 1736 O 165.074 2.01571 1.07618 0
M  V30 1737 C 165.284 2.47223 -2.46337 0
M  V30 1738 C 166.632 3.1252 -2.87431 0
M  V30 1739 O 167.656 2.57547 -2.46065 0
M  V30 1740 O 166.515 4.12083 -3.58957 0
M  V30 1741 H 163.609 0.646365 -0.515889 0
M  V30 1742 H 166.155 0.727716 -1.53305 0
M  V30 1743 H 164.927 1.97204 -3.37974 0
M  V30 1744 H 164.55 3.27116 -2.2601 0
M  V30 1745 N 165.547 1.27147 0.931209 0
M  V30 1746 C 166.958 1.12044 1.49342 0
M  V30 1747 C 167.309 -0.295795 1.93957 0
M  V30 1748 O 166.434 -1.18835 1.80852 0
M  V30 1749 C 167.029 2.02781 2.71414 0
M  V30 1750 C 165.588 1.91794 3.2387 0
M  V30 1751 C 164.735 1.95543 1.96617 0
M  V30 1752 H 167.686 1.40091 0.745672 0
M  V30 1753 H 167.707 1.58156 3.46074 0
M  V30 1754 H 167.219 3.05848 2.38911 0
M  V30 1755 H 165.32 0.916992 3.6114 0
M  V30 1756 H 165.433 2.77852 3.90302 0
M  V30 1757 H 163.797 1.39722 2.12955 0
M  V30 1758 H 164.58 3.00259 1.66432 0
M  V30 1759 N 167.025 -1.13721 1.09112 0
M  V30 1760 C 167.972 -2.19031 0.727591 0
M  V30 1761 C 168.942 -1.63555 -0.289656 0
M  V30 1762 O 170.127 -1.90023 -0.172026 0
M  V30 1763 C 167.267 -3.4477 0.15082 0
M  V30 1764 C 166.38 -4.14365 1.22172 0
M  V30 1765 C 165.515 -5.27709 0.608042 0
M  V30 1766 C 164.554 -5.89147 1.66047 0
M  V30 1767 N 163.691 -6.93929 1.06806 0
M  V30 1768 H 168.531 -2.49475 1.62991 0
M  V30 1769 H 166.068 -1.22499 0.81439 0
M  V30 1770 H 168.026 -4.16714 -0.201358 0
M  V30 1771 H 166.656 -3.14787 -0.714783 0
M  V30 1772 H 165.708 -3.40737 1.69122 0
M  V30 1773 H 167.02 -4.56114 2.01895 0
M  V30 1774 H 166.174 -6.06355 0.204523 0
M  V30 1775 H 164.913 -4.872 -0.220769 0
M  V30 1776 H 163.918 -5.09198 2.07357 0
M  V30 1777 H 165.143 -6.31729 2.49189 0
M  V30 1778 H 163.089 -6.55483 0.260476 0
M  V30 1779 H 163.006 -7.34202 1.8023 0
M  V30 1780 H 164.274 -7.76434 0.690644 0
M  V30 1781 N 168.503 -0.877838 -1.30888 0
M  V30 1782 C 169.451 -0.328662 -2.30266 0
M  V30 1783 C 170.445 0.560496 -1.59859 0
M  V30 1784 O 171.651 0.445722 -1.74394 0
M  V30 1785 H 168.026 -0.0876142 -0.746879 0
M  V30 1786 H 169.997 -1.18061 -2.74051 0
M  V30 1787 C 168.746 0.448071 -3.44801 0
M  V30 1788 H 168.069 -0.226859 -3.99156 0
M  V30 1789 H 169.509 0.797541 -4.16432 0
M  V30 1790 C 167.968 1.64239 -2.94155 0
M  V30 1791 O 168.498 2.74175 -2.93583 0
M  V30 1792 N 166.704 1.47716 -2.50256 0
M  V30 1793 H 166.251 0.582821 -2.5092 0
M  V30 1794 H 166.209 2.27765 -2.16727 0
M  V30 1795 N 169.982 1.44106 -0.638065 0
M  V30 1796 C 170.945 2.29138 0.0531013 0
M  V30 1797 C 171.945 1.41409 0.765506 0
M  V30 1798 O 173.135 1.63206 0.609046 0
M  V30 1799 C 170.267 3.23144 1.08584 0
M  V30 1800 H 171.46 2.91739 -0.694883 0
M  V30 1801 H 169.013 1.51134 -0.398538 0
M  V30 1802 H 169.748 2.65408 1.86357 0
M  V30 1803 H 169.533 3.87804 0.578852 0
M  V30 1804 H 171.023 3.87004 1.56899 0
M  V30 1805 N 171.46 0.379036 1.52974 0
M  V30 1806 C 172.737 -0.263479 1.93817 0
M  V30 1807 C 173.117 -1.65244 1.31368 0
M  V30 1808 O 172.465 -2.23448 0.477856 0
M  V30 1809 C 172.675 -0.300166 3.47707 0
M  V30 1810 C 174.023 -0.534061 4.21228 0
M  V30 1811 O 175.047 -0.38081 3.54159 0
M  V30 1812 O 173.906 -0.833501 5.40106 0
M  V30 1813 H 171 -0.161149 0.811147 0
M  V30 1814 H 173.546 0.432798 1.64088 0
M  V30 1815 H 172.318 0.673138 3.85467 0
M  V30 1816 H 171.941 -1.04179 3.83709 0
M  V30 1817 N 172.938 -1.57226 0.108567 0
M  V30 1818 C 174.215 -1.86333 -0.594939 0
M  V30 1819 C 174.595 -1.00788 -1.85486 0
M  V30 1820 O 173.943 -0.0839293 -2.28346 0
M  V30 1821 C 174.153 -3.37265 -0.897405 0
M  V30 1822 C 175.501 -4.05629 -1.25501 0
M  V30 1823 O 176.525 -3.42224 -0.987998 0
M  V30 1824 O 175.384 -5.17531 -1.75567 0
M  V30 1825 H 172.478 -0.771018 -0.2991 0
M  V30 1826 H 175.024 -1.69102 0.142283 0
M  V30 1827 H 173.796 -3.913 -0.00413806 0
M  V30 1828 H 173.419 -3.59889 -1.69014 0
M  V30 1829 N 174.416 0.165178 -1.56732 0
M  V30 1830 C 175.644 0.896218 -1.86482 0
M  V30 1831 C 176.059 1.75555 -0.694675 0
M  V30 1832 O 175.416 1.79379 0.33607 0
M  V30 1833 C 175.467 1.76792 -3.1532 0
M  V30 1834 O 175.188 0.943239 -4.27825 0
M  V30 1835 C 176.689 2.6081 -3.58459 0
M  V30 1836 H 173.909 0.260064 -0.618553 0
M  V30 1837 H 176.453 0.163428 -2.03846 0
M  V30 1838 H 174.608 2.45398 -2.99764 0
M  V30 1839 H 175.022 1.53998 -5.01383 0
M  V30 1840 H 176.496 3.17579 -4.51495 0
M  V30 1841 H 176.973 3.35977 -2.82872 0
M  V30 1842 H 177.579 1.97526 -3.76648 0
M  V30 1843 N 175.894 1.51508 0.433938 0
M  V30 1844 C 177.119 1.68443 1.21003 0
M  V30 1845 C 177.544 0.382636 1.84167 0
M  V30 1846 O 176.902 -0.65755 1.68956 0
M  V30 1847 C 176.95 2.80405 2.26727 0
M  V30 1848 O 176.054 2.44245 3.32292 0
M  V30 1849 H 175.395 0.561536 0.354363 0
M  V30 1850 H 177.925 1.9809 0.512024 0
M  V30 1851 H 177.935 3.0459 2.71457 0
M  V30 1852 H 176.61 3.74867 1.80132 0
M  V30 1853 H 175.187 2.30644 2.93015 0
M  V30 1854 N 177.372 -0.689602 1.41712 0
M  V30 1855 C 178.621 -1.44534 1.40686 0
M  V30 1856 C 178.934 -1.95588 0.0213352 0
M  V30 1857 O 180.14 -2.71271 -0.111534 0
M  V30 1858 C 178.596 -2.61387 2.47396 0
M  V30 1859 C 178.204 -2.17094 3.91885 0
M  V30 1860 C 179.948 -3.38986 2.55517 0
M  V30 1861 C 177.855 -3.3094 4.90135 0
M  V30 1862 H 176.785 -0.542925 0.52321 0
M  V30 1863 H 179.436 -0.748054 1.6756 0
M  V30 1864 H 177.818 -3.33412 2.13664 0
M  V30 1865 H 178.992 -1.52318 4.34897 0
M  V30 1866 H 177.307 -1.52473 3.8748 0
M  V30 1867 H 179.904 -4.23747 3.26102 0
M  V30 1868 H 180.247 -3.84578 1.59391 0
M  V30 1869 H 180.78 -2.74021 2.8837 0
M  V30 1870 H 177.519 -2.90355 5.87685 0
M  V30 1871 H 177.039 -3.94546 4.51767 0
M  V30 1872 H 178.718 -3.9663 5.11169 0
M  V30 1873 N 178.85 -1.27639 -0.924453 0
M  V30 1874 C 180.08 -1.16819 -1.70402 0
M  V30 1875 C 180.488 0.277191 -1.87158 0
M  V30 1876 O 179.831 1.20025 -1.39067 0
M  V30 1877 C 179.893 -1.78305 -3.12166 0
M  V30 1878 C 179.557 -3.27502 -3.18734 0
M  V30 1879 C 180.554 -4.2409 -3.00738 0
M  V30 1880 C 178.239 -3.68269 -3.4159 0
M  V30 1881 C 180.233 -5.59422 -3.05492 0
M  V30 1882 C 177.92 -5.0373 -3.45977 0
M  V30 1883 C 178.918 -5.99116 -3.27946 0
M  V30 1884 O 178.606 -7.32108 -3.32074 0
M  V30 1885 H 178.338 -0.406931 -0.539799 0
M  V30 1886 H 180.892 -1.69078 -1.16626 0
M  V30 1887 H 179.122 -1.20528 -3.67437 0
M  V30 1888 H 180.811 -1.62154 -3.72103 0
M  V30 1889 H 181.577 -3.93931 -2.82919 0
M  V30 1890 H 177.456 -2.94496 -3.54673 0
M  V30 1891 H 181 -6.33852 -2.91337 0
M  V30 1892 H 176.897 -5.33543 -3.63321 0
M  V30 1893 H 177.665 -7.40598 -3.48507 0
M  V30 1894 N 180.328 1.1314 -1.09713 0
M  V30 1895 C 181.261 2.17735 -0.683137 0
M  V30 1896 C 182.239 1.59582 0.311841 0
M  V30 1897 O 183.423 1.87298 0.212514 0
M  V30 1898 C 180.55 3.38699 -0.00684324 0
M  V30 1899 C 179.596 4.1546 -0.964102 0
M  V30 1900 S 180.429 4.74733 -2.47767 0
M  V30 1901 C 181.585 5.9904 -1.81387 0
M  V30 1902 H 181.818 2.52515 -1.56918 0
M  V30 1903 H 179.351 1.24484 -0.913404 0
M  V30 1904 H 181.309 4.08765 0.377044 0
M  V30 1905 H 179.97 3.02214 0.85589 0
M  V30 1906 H 179.163 5.02093 -0.43803 0
M  V30 1907 H 178.765 3.51066 -1.28953 0
M  V30 1908 H 181.057 6.67846 -1.13967 0
M  V30 1909 H 182 6.56261 -2.65947 0
M  V30 1910 H 182.408 5.4976 -1.28155 0
M  V30 1911 N 181.806 0.884767 1.30421 0
M  V30 1912 C 183.053 0.503105 1.96151 0
M  V30 1913 C 183.381 -0.947676 1.69851 0
M  V30 1914 O 182.636 -1.68467 0.995861 0
M  V30 1915 C 182.935 0.724318 3.49983 0
M  V30 1916 C 182.601 2.15015 3.96332 0
M  V30 1917 C 181.263 2.54005 4.08699 0
M  V30 1918 C 183.615 3.07936 4.20505 0
M  V30 1919 C 180.943 3.85128 4.42599 0
M  V30 1920 C 183.295 4.3859 4.55874 0
M  V30 1921 C 181.959 4.77474 4.66449 0
M  V30 1922 H 181.229 0.184099 0.717766 0
M  V30 1923 H 183.876 1.12058 1.55291 0
M  V30 1924 H 182.181 0.0238086 3.91793 0
M  V30 1925 H 183.878 0.408617 3.98913 0
M  V30 1926 H 180.468 1.8375 3.87213 0
M  V30 1927 H 184.652 2.79033 4.10431 0
M  V30 1928 H 179.908 4.14996 4.48986 0
M  V30 1929 H 184.082 5.10629 4.7353 0
M  V30 1930 H 181.709 5.79115 4.92473 0
M  V30 1931 N 183.284 -1.43765 0.645699 0
M  V30 1932 C 184.514 -2.05953 0.163318 0
M  V30 1933 C 184.922 -1.48432 -1.17322 0
M  V30 1934 O 184.265 -0.607295 -1.73371 0
M  V30 1935 C 184.327 -3.59499 -0.0103065 0
M  V30 1936 C 183.991 -4.39563 1.25035 0
M  V30 1937 C 184.988 -4.72108 2.17739 0
M  V30 1938 C 182.673 -4.79697 1.48983 0
M  V30 1939 C 184.667 -5.43688 3.3269 0
M  V30 1940 C 182.354 -5.51023 2.64229 0
M  V30 1941 C 183.352 -5.8294 3.55908 0
M  V30 1942 O 183.04 -6.5281 4.69142 0
M  V30 1943 H 182.772 -0.670798 0.0836986 0
M  V30 1944 H 185.326 -1.85384 0.884407 0
M  V30 1945 H 183.556 -3.78613 -0.78669 0
M  V30 1946 H 185.245 -4.03408 -0.449087 0
M  V30 1947 H 186.011 -4.41627 2.00476 0
M  V30 1948 H 181.89 -4.54266 0.785078 0
M  V30 1949 H 185.434 -5.68517 4.04269 0
M  V30 1950 H 181.331 -5.8092 2.81429 0
M  V30 1951 H 182.099 -6.71288 4.6831 0
M  V30 1952 N 184.763 -0.387143 -1.52771 0
M  V30 1953 C 185.695 0.484089 -2.2403 0
M  V30 1954 C 186.708 1.02849 -1.26198 0
M  V30 1955 O 187.897 0.931186 -1.52286 0
M  V30 1956 C 184.997 1.68337 -2.94136 0
M  V30 1957 C 184.17 1.26672 -4.18656 0
M  V30 1958 C 183.229 2.33045 -4.7178 0
M  V30 1959 O 182.255 1.94541 -5.34923 0
M  V30 1960 N 183.457 3.64929 -4.5145 0
M  V30 1961 H 186.222 -0.126404 -2.99433 0
M  V30 1962 H 183.783 -0.213392 -1.60488 0
M  V30 1963 H 185.775 2.39019 -3.26577 0
M  V30 1964 H 184.345 2.20025 -2.22053 0
M  V30 1965 H 183.565 0.388878 -3.92277 0
M  V30 1966 H 184.853 0.964964 -4.99566 0
M  V30 1967 H 184.251 3.98974 -4.01044 0
M  V30 1968 H 182.808 4.31651 -4.88386 0
M  V30 1969 N 186.241 1.57166 -0.116904 0
M  V30 1970 C 187.188 2.15202 0.83408 0
M  V30 1971 C 188.158 1.07644 1.26499 0
M  V30 1972 O 189.343 1.35541 1.34288 0
M  V30 1973 C 186.483 2.75405 2.07957 0
M  V30 1974 C 185.596 3.97264 1.69721 0
M  V30 1975 C 184.731 4.45561 2.89221 0
M  V30 1976 C 183.77 5.59956 2.47215 0
M  V30 1977 N 182.907 6.03006 3.59622 0
M  V30 1978 H 187.747 2.96141 0.332335 0
M  V30 1979 H 185.284 1.46309 0.152349 0
M  V30 1980 H 187.242 3.08439 2.80929 0
M  V30 1981 H 185.872 1.97159 2.55594 0
M  V30 1982 H 184.924 3.70404 0.866316 0
M  V30 1983 H 186.236 4.80226 1.34849 0
M  V30 1984 H 185.39 4.80493 3.7042 0
M  V30 1985 H 184.129 3.61544 3.27318 0
M  V30 1986 H 183.134 5.2463 1.64448 0
M  V30 1987 H 184.359 6.45738 2.10238 0
M  V30 1988 H 182.305 5.21931 3.97396 0
M  V30 1989 H 182.222 6.80819 3.28667 0
M  V30 1990 H 183.49 6.42576 4.41267 0
M  V30 1991 N 187.719 -0.156864 1.56817 0
M  V30 1992 C 188.965 -0.872416 1.83076 0
M  V30 1993 C 189.298 -1.81261 0.697001 0
M  V30 1994 O 188.573 -1.92171 -0.30008 0
M  V30 1995 C 188.856 -1.65551 3.19789 0
M  V30 1996 C 188.709 -0.737467 4.43713 0
M  V30 1997 C 190.028 -2.62012 3.53606 0
M  V30 1998 H 187.147 -0.315715 0.665953 0
M  V30 1999 H 189.789 -0.138004 1.89498 0
M  V30 2000 H 187.939 -2.28159 3.14445 0
M  V30 2001 H 189.611 -0.123143 4.61136 0
M  V30 2002 H 187.854 -0.0464067 4.33775 0
M  V30 2003 H 188.525 -1.32122 5.35955 0
M  V30 2004 H 191.001 -2.09525 3.59497 0
M  V30 2005 H 189.877 -3.13861 4.50314 0
M  V30 2006 H 190.138 -3.42902 2.79053 0
M  V30 2007 N 189.197 -1.51736 -0.425897 0
M  V30 2008 C 190.445 -1.64644 -1.17204 0
M  V30 2009 C 190.766 -0.370486 -1.91448 0
M  V30 2010 O 190.036 0.614088 -1.86026 0
M  V30 2011 H 188.616 -0.606819 -0.435638 0
M  V30 2012 H 191.278 -1.88713 -0.487177 0
M  V30 2013 H 190.374 -2.47958 -1.89534 0
M  V30 2014 N 190.675 0.682077 -1.42076 0
M  V30 2015 C 191.585 1.82535 -1.47371 0
M  V30 2016 C 192.601 1.7017 -0.363079 0
M  V30 2017 O 193.777 1.91848 -0.612875 0
M  V30 2018 C 190.842 3.18624 -1.36674 0
M  V30 2019 C 189.903 3.42999 -2.58167 0
M  V30 2020 C 189.136 4.72595 -2.4797 0
M  V30 2021 O 189.359 5.50006 -1.5116 0
M  V30 2022 O 188.293 4.98054 -3.37974 0
M  V30 2023 H 192.119 1.81023 -2.43853 0
M  V30 2024 H 189.704 0.836887 -1.2376 0
M  V30 2025 H 191.586 3.99847 -1.33043 0
M  V30 2026 H 190.261 3.20789 -0.433138 0
M  V30 2027 H 189.168 2.61653 -2.67373 0
M  V30 2028 H 190.501 3.45659 -3.50401 0
M  V30 2029 N 192.153 1.28127 0.917671 0
M  V30 2030 C 193.381 1.17892 1.70026 0
M  V30 2031 C 193.796 -0.262958 1.8696 0
M  V30 2032 O 193.153 -1.17811 1.3938 0
M  V30 2033 C 193.204 1.86872 3.09453 0
M  V30 2034 O 192.925 3.25428 2.93306 0
M  V30 2035 C 194.426 1.8289 4.03815 0
M  V30 2036 H 191.646 0.40942 0.531617 0
M  V30 2037 H 194.19 1.69181 1.14883 0
M  V30 2038 H 192.345 1.39464 3.61426 0
M  V30 2039 H 192.759 3.59918 3.81523 0
M  V30 2040 H 194.233 2.35751 4.99125 0
M  V30 2041 H 194.71 0.800412 4.31845 0
M  V30 2042 H 195.316 2.29959 3.57769 0
M  V30 2043 N 193.631 -1.12557 1.10312 0
M  V30 2044 C 194.856 -1.88405 0.867085 0
M  V30 2045 C 195.281 -1.79038 -0.576817 0
M  V30 2046 O 194.639 -1.14439 -1.40618 0
M  V30 2047 C 194.687 -3.3563 1.31851 0
M  V30 2048 O 193.791 -4.09565 0.482734 0
M  V30 2049 H 193.132 -0.585455 0.313271 0
M  V30 2050 H 195.662 -1.42352 1.4696 0
M  V30 2051 H 195.672 -3.86469 1.3079 0
M  V30 2052 H 194.347 -3.41765 2.37001 0
M  V30 2053 H 192.924 -3.68695 0.558448 0
M  V30 2054 N 195.109 -0.891671 -1.2995 0
M  V30 2055 C 196.358 -0.509521 -1.95158 0
M  V30 2056 C 196.671 0.947388 -1.71125 0
M  V30 2057 O 197.877 1.43669 -2.30372 0
M  V30 2058 C 196.333 -0.860315 -3.49466 0
M  V30 2059 C 195.941 -2.33545 -3.8231 0
M  V30 2060 C 197.685 -0.547687 -4.20952 0
M  V30 2061 C 195.592 -2.62752 -5.29826 0
M  V30 2062 H 194.522 -0.18682 -0.730489 0
M  V30 2063 H 197.173 -1.08756 -1.47798 0
M  V30 2064 H 195.555 -0.211285 -3.95436 0
M  V30 2065 H 196.729 -3.02936 -3.47227 0
M  V30 2066 H 195.044 -2.61629 -3.23944 0
M  V30 2067 H 197.641 -0.742854 -5.29515 0
M  V30 2068 H 197.984 0.51332 -4.13123 0
M  V30 2069 H 198.517 -1.1542 -3.80688 0
M  V30 2070 H 195.256 -3.6762 -5.42712 0
M  V30 2071 H 194.776 -1.97977 -5.66185 0
M  V30 2072 H 196.455 -2.48601 -5.97333 0
M  V30 2073 N 196.587 1.43421 -0.653314 0
M  V30 2074 C 197.864 1.95361 -0.0966581 0
M  V30 2075 C 198.244 1.59461 1.38331 0
M  V30 2076 O 197.592 0.879777 2.10884 0
M  V30 2077 C 197.802 3.47311 -0.342988 0
M  V30 2078 C 199.15 4.23875 -0.24798 0
M  V30 2079 O 200.174 3.55133 -0.275553 0
M  V30 2080 O 199.033 5.4623 -0.171771 0
M  V30 2081 H 196.127 0.826945 0.00956291 0
M  V30 2082 H 198.673 1.5336 -0.726558 0
M  V30 2083 H 197.445 3.66569 -1.36906 0
M  V30 2084 H 197.068 3.9631 0.319975 0
M  V30 2085 N 198.065 0.39524 1.52563 0
M  V30 2086 C 199.29 -0.187456 2.06551 0
M  V30 2087 C 199.715 -1.39249 1.26457 0
M  V30 2088 O 199.073 -1.78947 0.291151 0
M  V30 2089 C 199.121 -0.529985 3.56684 0
M  V30 2090 O 198.225 -1.62307 3.79118 0
M  V30 2091 H 197.566 -0.0202537 0.663691 0
M  V30 2092 H 200.096 0.564426 1.96661 0
M  V30 2093 H 200.106 -0.792598 4.00227 0
M  V30 2094 H 198.781 0.350987 4.14416 0
M  V30 2095 H 197.358 -1.3537 3.47461 0
M  V30 2096 N 199.544 -1.57102 0.125237 0
M  V30 2097 C 200.79 -1.96488 -0.525753 0
M  V30 2098 C 201.145 -1.00786 -1.6389 0
M  V30 2099 O 200.438 -0.038979 -1.9156 0
M  V30 2100 C 200.632 -3.40096 -1.09862 0
M  V30 2101 C 200.461 -4.4968 -0.0425004 0
M  V30 2102 C 199.231 -5.03781 0.391463 0
M  V30 2103 C 201.429 -5.08936 0.740829 0
M  V30 2104 N 199.411 -5.96948 1.4327 0
M  V30 2105 C 200.782 -5.98105 1.6331 0
M  V30 2106 C 202.837 -4.91576 0.791029 0
M  V30 2107 C 201.54 -6.71774 2.57122 0
M  V30 2108 C 203.566 -5.6593 1.71688 0
M  V30 2109 C 202.928 -6.5479 2.59672 0
M  V30 2110 H 199.027 -0.765072 -0.161831 0
M  V30 2111 H 201.611 -1.93511 0.214801 0
M  V30 2112 H 199.782 -3.43707 -1.80887 0
M  V30 2113 H 201.514 -3.66591 -1.71444 0
M  V30 2114 H 198.269 -4.736 -0.00213584 0
M  V30 2115 H 198.693 -6.48236 1.95243 0
M  V30 2116 H 203.335 -4.22615 0.124915 0
M  V30 2117 H 201.053 -7.39977 3.24744 0
M  V30 2118 H 204.639 -5.54501 1.76125 0
M  V30 2119 H 203.519 -7.11316 3.30149 0
M  V30 2120 N 201.022 0.148545 -1.56898 0
M  V30 2121 C 201.969 1.18345 -1.98149 0
M  V30 2122 C 202.939 1.42772 -0.848848 0
M  V30 2123 O 204.124 1.55132 -1.11079 0
M  V30 2124 C 201.264 2.51231 -2.36594 0
M  V30 2125 C 200.377 2.33991 -3.63142 0
M  V30 2126 C 199.512 3.59902 -3.90697 0
M  V30 2127 C 198.551 3.37692 -5.1052 0
M  V30 2128 N 197.688 4.5573 -5.34092 0
M  V30 2129 H 202.528 0.82467 -2.86362 0
M  V30 2130 H 200.065 0.395756 -1.41676 0
M  V30 2131 H 202.023 3.28713 -2.56912 0
M  V30 2132 H 200.653 2.85059 -1.51463 0
M  V30 2133 H 199.705 1.47572 -3.50609 0
M  V30 2134 H 201.017 2.13539 -4.5078 0
M  V30 2135 H 200.171 4.45813 -4.11505 0
M  V30 2136 H 198.91 3.83357 -3.01477 0
M  V30 2137 H 197.915 2.5017 -4.89587 0
M  V30 2138 H 199.14 3.15637 -6.0129 0
M  V30 2139 H 197.086 4.79361 -4.47827 0
M  V30 2140 H 197.003 4.38274 -6.15996 0
M  V30 2141 H 198.271 5.42858 -5.59397 0
M  V30 2142 N 202.5 1.5196 0.417844 0
M  V30 2143 C 203.448 1.75278 1.52907 0
M  V30 2144 C 204.442 0.619611 1.57662 0
M  V30 2145 O 205.648 0.801457 1.61173 0
M  V30 2146 H 202.023 0.554141 0.508362 0
M  V30 2147 H 203.994 2.68389 1.30422 0
M  V30 2148 C 202.743 1.91262 2.90369 0
M  V30 2149 H 202.066 2.77872 2.8745 0
M  V30 2150 H 203.506 2.11581 3.67436 0
M  V30 2151 C 201.965 0.677431 3.30019 0
M  V30 2152 O 202.495 -0.158799 4.01386 0
M  V30 2153 N 200.701 0.515851 2.85985 0
M  V30 2154 H 200.248 1.19744 2.28077 0
M  V30 2155 H 200.206 -0.309315 3.12875 0
M  V30 2156 N 203.978 -0.674533 1.42435 0
M  V30 2157 C 204.941 -1.76986 1.45632 0
M  V30 2158 C 205.941 -1.5708 0.343871 0
M  V30 2159 O 207.131 -1.63367 0.604709 0
M  V30 2160 C 204.263 -3.15623 1.28822 0
M  V30 2161 H 205.456 -1.75539 2.43158 0
M  V30 2162 H 203.009 -0.884189 1.28887 0
M  V30 2163 H 203.744 -3.22696 0.322193 0
M  V30 2164 H 203.529 -3.31475 2.09444 0
M  V30 2165 H 205.019 -3.95537 1.33942 0
M  V30 2166 N 205.456 -1.28612 -0.910864 0
M  V30 2167 C 206.704 -1.15705 -1.65701 0
M  V30 2168 C 207.025 0.29416 -1.92769 0
M  V30 2169 O 206.295 1.20331 -1.54588 0
M  V30 2170 H 204.875 -0.425216 -0.614167 0
M  V30 2171 H 207.537 -1.61381 -1.0928 0
M  V30 2172 H 206.633 -1.6988 -2.61815 0
M  V30 2173 N 206.934 1.1197 -1.10907 0
M  V30 2174 C 208.35 1.35591 -0.841852 0
M  V30 2175 C 208.55 1.94233 0.536246 0
M  V30 2176 O 207.606 2.1717 1.28816 0
M  V30 2177 C 208.919 2.29284 -1.94549 0
M  V30 2178 C 210.467 2.42862 -1.97451 0
M  V30 2179 C 210.942 3.39873 -3.07002 0
M  V30 2180 N 212.433 3.47433 -3.06341 0
M  V30 2181 C 213.168 4.22421 -3.87748 0
M  V30 2182 N 212.664 5.00432 -4.79103 0
M  V30 2183 N 214.457 4.17876 -3.75946 0
M  V30 2184 H 206.608 0.722664 -1.99728 0
M  V30 2185 H 208.871 0.380635 -0.868229 0
M  V30 2186 H 208.577 1.93378 -2.93765 0
M  V30 2187 H 208.451 3.29452 -1.83688 0
M  V30 2188 H 210.838 2.78046 -0.988645 0
M  V30 2189 H 210.919 1.42566 -2.12388 0
M  V30 2190 H 210.563 3.05417 -4.05811 0
M  V30 2191 H 210.493 4.40011 -2.89306 0
M  V30 2192 H 212.984 2.91784 -2.40147 0
M  V30 2193 H 213.297 5.55002 -5.37766 0
M  V30 2194 H 211.642 4.99612 -4.83128 0
M  V30 2195 H 214.833 3.56016 -3.03924 0
M  V30 2196 H 215.006 4.76061 -4.39624 0
M  V30 2197 N 208.412 0.89855 1.29475 0
M  V30 2198 C 209.658 0.524658 1.95896 0
M  V30 2199 C 209.991 -0.926468 1.70676 0
M  V30 2200 O 209.266 -1.65665 1.01908 0
M  V30 2201 C 209.549 0.81633 3.50725 0
M  V30 2202 C 209.402 2.31907 3.85408 0
M  V30 2203 C 210.721 0.302038 4.39062 0
M  V30 2204 H 207.84 0.19209 0.711527 0
M  V30 2205 H 210.482 1.12502 1.53112 0
M  V30 2206 H 208.632 0.305369 3.87298 0
M  V30 2207 H 210.304 2.89949 3.58786 0
M  V30 2208 H 208.547 2.78027 3.32992 0
M  V30 2209 H 209.218 2.47373 4.93468 0
M  V30 2210 H 211.694 0.739551 4.09475 0
M  V30 2211 H 210.57 0.535331 5.46283 0
M  V30 2212 H 210.831 -0.797216 4.34853 0
M  V30 2213 N 209.89 -1.43072 0.660911 0
M  V30 2214 C 211.137 -2.01721 0.177445 0
M  V30 2215 C 211.465 -1.5218 -1.21126 0
M  V30 2216 O 210.72 -0.708659 -1.82419 0
M  V30 2217 C 211.019 -3.57103 0.145563 0
M  V30 2218 C 210.685 -4.26021 1.47705 0
M  V30 2219 C 209.347 -4.44563 1.84165 0
M  V30 2220 C 211.699 -4.64983 2.35458 0
M  V30 2221 C 209.027 -4.99334 3.0803 0
M  V30 2222 C 211.379 -5.21127 3.58622 0
M  V30 2223 C 210.043 -5.37884 3.95268 0
M  V30 2224 H 209.313 -0.73815 0.0649317 0
M  V30 2225 H 211.96 -1.71446 0.853144 0
M  V30 2226 H 210.265 -3.86965 -0.61361 0
M  V30 2227 H 211.962 -4.00248 -0.2455 0
M  V30 2228 H 208.552 -4.11939 1.18339 0
M  V30 2229 H 212.736 -4.50343 2.08579 0
M  V30 2230 H 207.992 -5.10493 3.36462 0
M  V30 2231 H 212.166 -5.50262 4.26831 0
M  V30 2232 H 209.793 -5.80089 4.91325 0
M  V30 2233 N 211.368 -0.403325 -1.52352 0
M  V30 2234 C 212.315 0.425011 -2.26853 0
M  V30 2235 C 213.285 1.04598 -1.29029 0
M  V30 2236 O 214.47 1.07135 -1.57882 0
M  V30 2237 C 211.61 1.53888 -3.08889 0
M  V30 2238 C 210.723 0.939396 -4.21663 0
M  V30 2239 C 209.858 2.02547 -4.91068 0
M  V30 2240 C 208.897 1.40263 -5.95813 0
M  V30 2241 N 208.034 2.4286 -6.58759 0
M  V30 2242 H 212.874 -0.21674 -2.97211 0
M  V30 2243 H 210.411 -0.118722 -1.4662 0
M  V30 2244 H 212.369 2.19558 -3.54753 0
M  V30 2245 H 210.999 2.15074 -2.40714 0
M  V30 2246 H 210.051 0.171898 -3.80011 0
M  V30 2247 H 211.363 0.44436 -4.96817 0
M  V30 2248 H 210.517 2.75958 -5.40308 0
M  V30 2249 H 209.256 2.55415 -4.15469 0
M  V30 2250 H 208.261 0.653833 -5.45898 0
M  V30 2251 H 209.486 0.881719 -6.73352 0
M  V30 2252 H 207.432 2.94871 -5.85992 0
M  V30 2253 H 207.349 1.98152 -7.2957 0
M  V30 2254 H 208.617 3.15858 -7.12639 0
M  V30 2255 N 212.846 1.57033 -0.133567 0
M  V30 2256 C 214.123 1.87256 0.56522 0
M  V30 2257 C 214.503 1.03726 1.83859 0
M  V30 2258 O 213.851 0.120247 2.28183 0
M  V30 2259 C 214.061 3.3865 0.843636 0
M  V30 2260 C 215.409 4.07574 1.19032 0
M  V30 2261 O 216.433 3.43752 0.933429 0
M  V30 2262 O 215.292 5.20259 1.67312 0
M  V30 2263 H 212.386 0.775678 0.286796 0
M  V30 2264 H 214.932 1.68855 -0.169168 0
M  V30 2265 H 213.704 3.91257 -0.0581149 0
M  V30 2266 H 213.327 3.62532 1.63268 0
M  V30 2267 N 214.325 -0.140222 1.56975 0
M  V30 2268 C 215.55 -0.870414 1.88251 0
M  V30 2269 C 215.975 -1.73637 0.723312 0
M  V30 2270 O 215.333 -1.78329 -0.32689 0
M  V30 2271 C 215.381 -1.69737 3.18154 0
M  V30 2272 O 214.485 -2.80229 3.02565 0
M  V30 2273 H 213.826 -0.242025 0.61832 0
M  V30 2274 H 216.356 -0.128999 2.04193 0
M  V30 2275 H 216.366 -2.09099 3.50345 0
M  V30 2276 H 215.041 -1.06152 4.02125 0
M  V30 2277 H 213.618 -2.44224 2.81796 0
M  V30 2278 N 215.803 -1.52179 -0.40978 0
M  V30 2279 C 217.08 -1.56769 -1.16974 0
M  V30 2280 C 217.46 -0.348322 -2.08206 0
M  V30 2281 O 216.808 0.664862 -2.18613 0
M  V30 2282 C 217.018 -2.89603 -1.9476 0
M  V30 2283 C 218.366 -3.42579 -2.50849 0
M  V30 2284 O 219.39 -2.91338 -2.04941 0
M  V30 2285 O 218.249 -4.32054 -3.34652 0
M  V30 2286 H 215.343 -0.631439 -0.534054 0
M  V30 2287 H 217.889 -1.64507 -0.416613 0
M  V30 2288 H 216.661 -3.698 -1.27921 0
M  V30 2289 H 216.284 -2.85155 -2.77079 0
M  V30 2290 N 217.281 0.66697 -1.42791 0
M  V30 2291 C 218.228 1.7803 -1.4688 0
M  V30 2292 C 219.198 1.6299 -0.319919 0
M  V30 2293 O 220.383 1.83432 -0.525118 0
M  V30 2294 C 217.523 3.1611 -1.38451 0
M  V30 2295 C 216.636 3.42381 -2.63437 0
M  V30 2296 C 215.771 4.70232 -2.47094 0
M  V30 2297 C 214.81 4.89564 -3.67415 0
M  V30 2298 N 213.947 6.08661 -3.49966 0
M  V30 2299 H 218.787 1.7387 -2.42019 0
M  V30 2300 H 216.324 0.84868 -1.20149 0
M  V30 2301 H 218.282 3.95914 -1.31561 0
M  V30 2302 H 216.912 3.19374 -0.469033 0
M  V30 2303 H 215.964 2.56774 -2.80662 0
M  V30 2304 H 217.276 3.52557 -3.52853 0
M  V30 2305 H 216.43 5.5814 -2.37834 0
M  V30 2306 H 215.169 4.62353 -1.5518 0
M  V30 2307 H 214.174 4.00096 -3.77099 0
M  V30 2308 H 215.399 4.99282 -4.6032 0
M  V30 2309 H 213.345 6.0194 -2.60776 0
M  V30 2310 H 213.262 6.19733 -4.32975 0
M  V30 2311 H 214.53 6.99226 -3.44532 0
M  V30 2312 N 218.759 1.29093 0.90403 0
M  V30 2313 C 220.006 1.16813 1.65411 0
M  V30 2314 C 220.334 -0.28128 1.92455 0
M  V30 2315 O 219.589 -1.22006 1.53013 0
M  V30 2316 C 219.888 1.92224 3.01305 0
M  V30 2317 C 219.554 3.41968 2.93885 0
M  V30 2318 C 218.216 3.82807 2.91569 0
M  V30 2319 C 220.568 4.37409 2.83413 0
M  V30 2320 C 217.896 5.1741 2.76594 0
M  V30 2321 C 220.248 5.72097 2.69977 0
M  V30 2322 C 218.912 6.12199 2.66024 0
M  V30 2323 H 218.182 0.42745 0.605283 0
M  V30 2324 H 220.829 1.59981 1.05254 0
M  V30 2325 H 219.134 1.41635 3.65304 0
M  V30 2326 H 220.831 1.80131 3.58265 0
M  V30 2327 H 217.421 3.09504 2.96488 0
M  V30 2328 H 221.605 4.06813 2.84283 0
M  V30 2329 H 216.861 5.47596 2.71935 0
M  V30 2330 H 221.035 6.45704 2.60844 0
M  V30 2331 H 218.662 7.16448 2.54178 0
M  V30 2332 N 220.237 -1.11381 1.11499 0
M  V30 2333 C 221.514 -1.7955 0.775965 0
M  V30 2334 C 221.894 -1.97859 -0.73588 0
M  V30 2335 O 221.242 -1.56376 -1.66609 0
M  V30 2336 C 221.452 -3.13196 1.53977 0
M  V30 2337 C 222.8 -3.88227 1.71944 0
M  V30 2338 O 223.824 -3.22887 1.50407 0
M  V30 2339 O 222.683 -5.05477 2.07738 0
M  V30 2340 H 219.777 -0.777728 0.28119 0
M  V30 2341 H 222.323 -1.18118 1.21845 0
M  V30 2342 H 221.095 -2.95229 2.56818 0
M  V30 2343 H 220.718 -3.82342 1.09088 0
M  V30 2344 N 221.715 -0.905404 -1.28997 0
M  V30 2345 C 222.678 -0.392253 -2.25819 0
M  V30 2346 C 223.678 0.476753 -1.5357 0
M  V30 2347 O 224.868 0.280994 -1.71919 0
M  V30 2348 C 222 0.438588 -3.38067 0
M  V30 2349 H 223.193 -1.24743 -2.72725 0
M  V30 2350 H 220.746 -0.684051 -1.40536 0
M  V30 2351 H 221.481 1.31352 -2.96508 0
M  V30 2352 H 221.266 -0.184167 -3.91667 0
M  V30 2353 H 222.756 0.78873 -4.10084 0
M  V30 2354 N 223.193 1.4272 -0.668489 0
M  V30 2355 C 224.141 2.32586 0.0254857 0
M  V30 2356 C 225.135 1.49471 0.797176 0
M  V30 2357 O 226.341 1.65583 0.705853 0
M  V30 2358 H 222.716 0.751514 0.0270339 0
M  V30 2359 H 224.687 2.88823 -0.749936 0
M  V30 2360 C 223.436 3.3397 0.967427 0
M  V30 2361 H 222.759 3.97961 0.383048 0
M  V30 2362 H 224.199 3.9945 1.42181 0
M  V30 2363 C 222.658 2.65744 2.0708 0
M  V30 2364 O 223.188 2.48454 3.15648 0
M  V30 2365 N 221.394 2.2487 1.8407 0
M  V30 2366 H 220.941 2.39132 0.95778 0
M  V30 2367 H 220.899 1.79552 2.58086 0
M  V30 2368 N 224.671 0.411399 1.52136 0
M  V30 2369 C 225.948 -0.222308 1.94333 0
M  V30 2370 C 226.328 -1.6242 1.34844 0
M  V30 2371 O 225.676 -2.22384 0.525145 0
M  V30 2372 C 225.886 -0.226345 3.48265 0
M  V30 2373 C 227.234 -0.444592 4.22266 0
M  V30 2374 O 228.258 -0.305602 3.54887 0
M  V30 2375 O 227.117 -0.718749 5.41753 0
M  V30 2376 H 224.211 -0.143907 0.814383 0
M  V30 2377 H 226.757 0.467506 1.63133 0
M  V30 2378 H 225.529 0.75475 3.83952 0
M  V30 2379 H 225.152 -0.960163 3.85832 0
M  V30 2380 N 226.149 -1.5696 0.141893 0
M  V30 2381 C 227.374 -2.00754 -0.520838 0
M  V30 2382 C 227.799 -1.0213 -1.57959 0
M  V30 2383 O 227.157 0.00371324 -1.813 0
M  V30 2384 C 227.205 -3.43318 -1.10294 0
M  V30 2385 O 226.309 -3.47679 -2.21795 0
M  V30 2386 H 225.65 -0.651564 -0.127908 0
M  V30 2387 H 228.18 -2.03221 0.23712 0
M  V30 2388 H 228.19 -3.82012 -1.43287 0
M  V30 2389 H 226.865 -4.14608 -0.327574 0
M  V30 2390 H 225.442 -3.20824 -1.9007 0
M  V30 2391 N 227.627 0.131896 -1.57047 0
M  V30 2392 C 228.876 0.84044 -1.83356 0
M  V30 2393 C 229.189 1.81646 -0.725535 0
M  V30 2394 O 230.395 2.57025 -0.874659 0
M  V30 2395 C 228.851 1.54528 -3.25037 0
M  V30 2396 C 228.459 0.610902 -4.43815 0
M  V30 2397 C 230.203 2.23972 -3.60606 0
M  V30 2398 C 228.11 1.31823 -5.76521 0
M  V30 2399 H 227.04 0.317599 -0.683847 0
M  V30 2400 H 229.691 0.0931561 -1.83263 0
M  V30 2401 H 228.073 2.33873 -3.19561 0
M  V30 2402 H 229.247 -0.148407 -4.60561 0
M  V30 2403 H 227.562 0.0241016 -4.16393 0
M  V30 2404 H 230.159 2.77558 -4.57018 0
M  V30 2405 H 230.502 3.01173 -2.87403 0
M  V30 2406 H 231.035 1.51529 -3.6781 0
M  V30 2407 H 227.774 0.587771 -6.52859 0
M  V30 2408 H 227.294 2.04987 -5.63685 0
M  V30 2409 H 228.973 1.855 -6.19838 0
M  V30 2410 N 229.106 1.52395 0.401703 0
M  V30 2411 C 230.036 1.79231 1.49661 0
M  V30 2412 C 231.017 0.643654 1.57452 0
M  V30 2413 O 232.202 0.889989 1.72606 0
M  V30 2414 C 229.332 1.94971 2.87409 0
M  V30 2415 C 228.286 3.10604 2.94465 0
M  V30 2416 C 227.612 3.11577 4.34538 0
M  V30 2417 C 228.912 4.49921 2.6527 0
M  V30 2418 H 230.606 2.70917 1.27454 0
M  V30 2419 H 228.152 1.30362 0.6117 0
M  V30 2420 H 230.105 2.12328 3.63999 0
M  V30 2421 H 228.829 0.999632 3.10926 0
M  V30 2422 H 227.488 2.93009 2.20321 0
M  V30 2423 H 227.136 2.14277 4.55076 0
M  V30 2424 H 226.836 3.89247 4.40183 0
M  V30 2425 H 228.36 3.31073 5.13053 0
M  V30 2426 H 229.774 4.67683 3.31581 0
M  V30 2427 H 228.171 5.29564 2.82281 0
M  V30 2428 H 229.241 4.57507 1.60671 0
M  V30 2429 N 230.584 -0.659388 1.43143 0
M  V30 2430 C 231.531 -1.77249 1.47822 0
M  V30 2431 C 232.501 -1.62818 0.328558 0
M  V30 2432 O 233.686 -1.83151 0.534838 0
M  V30 2433 C 230.826 -3.15371 1.40126 0
M  V30 2434 C 229.939 -3.4098 2.65249 0
M  V30 2435 C 229.074 -4.68915 2.49584 0
M  V30 2436 C 228.113 -4.87608 3.70006 0
M  V30 2437 N 227.25 -6.06796 3.53189 0
M  V30 2438 H 232.09 -1.72584 2.42938 0
M  V30 2439 H 229.627 -0.842297 1.20598 0
M  V30 2440 H 231.585 -3.9521 1.33659 0
M  V30 2441 H 230.215 -3.19121 0.485964 0
M  V30 2442 H 229.267 -2.55282 2.8202 0
M  V30 2443 H 230.579 -3.50681 3.54717 0
M  V30 2444 H 229.733 -5.56871 2.4079 0
M  V30 2445 H 228.472 -4.61524 1.5763 0
M  V30 2446 H 227.477 -3.9809 3.79215 0
M  V30 2447 H 228.702 -4.96834 4.62961 0
M  V30 2448 H 226.648 -6.00549 2.63965 0
M  V30 2449 H 226.565 -6.17428 4.36255 0
M  V30 2450 H 227.833 -6.9739 3.48236 0
M  V30 2451 N 232.062 -1.29571 -0.897171 0
M  V30 2452 C 233.339 -1.08365 -1.62839 0
M  V30 2453 C 233.719 0.371331 -2.07808 0
M  V30 2454 O 233.067 1.3606 -1.83576 0
M  V30 2455 C 233.277 -2.0735 -2.80726 0
M  V30 2456 C 234.625 -2.38406 -3.51351 0
M  V30 2457 O 235.649 -2.05564 -2.90898 0
M  V30 2458 O 234.508 -2.9453 -4.60341 0
M  V30 2459 H 231.602 -0.415345 -0.715134 0
M  V30 2460 H 234.148 -1.40952 -0.945018 0
M  V30 2461 H 232.92 -3.05339 -2.44711 0
M  V30 2462 H 232.543 -1.75507 -3.56767 0
M  V30 2463 N 233.54 1.10788 -1.12088 0
M  V30 2464 C 234.472 2.16816 -0.743213 0
M  V30 2465 C 235.485 1.6119 0.228412 0
M  V30 2466 O 236.674 1.78497 0.0102931 0
M  V30 2467 C 233.774 3.38809 -0.0787313 0
M  V30 2468 C 232.947 4.23885 -1.0789 0
M  V30 2469 C 232.006 5.24334 -0.442713 0
M  V30 2470 O 231.032 5.58497 -1.09864 0
M  V30 2471 N 232.234 5.75079 0.791457 0
M  V30 2472 H 234.999 2.49825 -1.65552 0
M  V30 2473 H 232.56 1.26373 -1.012 0
M  V30 2474 H 234.552 4.03107 0.358766 0
M  V30 2475 H 233.122 3.03805 0.736275 0
M  V30 2476 H 232.342 3.55939 -1.69414 0
M  V30 2477 H 233.63 4.77562 -1.75533 0
M  V30 2478 H 233.028 5.49517 1.3434 0
M  V30 2479 H 231.585 6.4118 1.17183 0
M  V30 2480 N 235.018 0.912232 1.28515 0
M  V30 2481 C 236.246 0.560416 1.99166 0
M  V30 2482 C 236.661 -0.857927 1.68182 0
M  V30 2483 O 236.018 -1.56805 0.933733 0
M  V30 2484 C 236.069 0.758142 3.53461 0
M  V30 2485 O 235.79 2.12067 3.83352 0
M  V30 2486 C 237.291 0.412954 4.41372 0
M  V30 2487 H 234.511 0.213805 0.636026 0
M  V30 2488 H 237.055 1.22502 1.63749 0
M  V30 2489 H 235.21 0.140556 3.87145 0
M  V30 2490 H 235.624 2.15923 4.77993 0
M  V30 2491 H 237.098 0.60208 5.48707 0
M  V30 2492 H 237.575 -0.65073 4.34353 0
M  V30 2493 H 238.181 1.00802 4.13182 0
M  V30 2494 N 236.496 -1.42363 0.676048 0
M  V30 2495 C 237.428 -2.29164 -0.0404605 0
M  V30 2496 C 238.441 -1.43747 -0.764245 0
M  V30 2497 O 239.63 -1.67453 -0.618195 0
M  V30 2498 C 236.73 -3.21196 -1.08103 0
M  V30 2499 C 235.903 -4.35273 -0.430812 0
M  V30 2500 C 234.962 -5.08017 -1.37133 0
M  V30 2501 O 233.988 -5.62494 -0.87116 0
M  V30 2502 N 235.19 -5.13647 -2.70456 0
M  V30 2503 H 237.955 -2.91298 0.704667 0
M  V30 2504 H 235.516 -1.53303 0.520559 0
M  V30 2505 H 237.508 -3.66728 -1.71152 0
M  V30 2506 H 236.078 -2.60505 -1.72788 0
M  V30 2507 H 235.298 -3.92372 0.379209 0
M  V30 2508 H 236.586 -5.08795 0.0221132 0
M  V30 2509 H 235.984 -4.708 -3.1363 0
M  V30 2510 H 234.541 -5.62821 -3.28749 0
M  V30 2511 N 237.974 -0.419461 -1.51915 0
M  V30 2512 C 238.884 0.407528 -2.31033 0
M  V30 2513 C 239.9 1.04413 -1.3919 0
M  V30 2514 O 241.076 1.0434 -1.72265 0
M  V30 2515 C 238.141 1.50365 -3.12396 0
M  V30 2516 C 237.202 0.889029 -4.19994 0
M  V30 2517 C 236.435 1.93291 -4.97468 0
M  V30 2518 O 236.658 3.15259 -4.75361 0
M  V30 2519 O 235.592 1.53339 -5.8204 0
M  V30 2520 H 239.418 -0.237865 -3.02767 0
M  V30 2521 H 237.003 -0.182413 -1.48282 0
M  V30 2522 H 238.885 2.13975 -3.63032 0
M  V30 2523 H 237.56 2.13345 -2.43445 0
M  V30 2524 H 236.467 0.215353 -3.7348 0
M  V30 2525 H 237.8 0.302991 -4.91267 0
M  V30 2526 N 239.452 1.56882 -0.150215 0
M  V30 2527 C 240.698 1.97299 0.494427 0
M  V30 2528 C 241.053 1.0338 1.62266 0
M  V30 2529 O 240.346 0.0694497 1.91474 0
M  V30 2530 C 240.54 3.41801 1.04437 0
M  V30 2531 C 240.369 4.49691 -0.0290451 0
M  V30 2532 C 239.139 5.03095 -0.47156 0
M  V30 2533 C 241.337 5.07693 -0.821703 0
M  V30 2534 N 239.319 5.94593 -1.52749 0
M  V30 2535 C 240.69 5.95431 -1.72805 0
M  V30 2536 C 242.745 4.90256 -0.869134 0
M  V30 2537 C 241.448 6.67599 -2.67777 0
M  V30 2538 C 243.474 5.63127 -1.8067 0
M  V30 2539 C 242.836 6.50576 -2.70057 0
M  V30 2540 H 238.935 0.76755 0.149639 0
M  V30 2541 H 241.519 1.93145 -0.24556 0
M  V30 2542 H 239.69 3.46541 1.75396 0
M  V30 2543 H 241.422 3.69272 1.6559 0
M  V30 2544 H 238.177 4.73543 -0.0732101 0
M  V30 2545 H 238.601 6.45047 -2.05531 0
M  V30 2546 H 243.243 4.22363 -0.192134 0
M  V30 2547 H 240.961 7.34717 -3.36476 0
M  V30 2548 H 244.547 5.51629 -1.84924 0
M  V30 2549 H 243.427 7.05974 -3.41424 0
M  V30 2550 N 240.93 -0.123565 1.57115 0
M  V30 2551 C 242.155 -0.850398 1.89164 0
M  V30 2552 C 242.58 -1.7286 0.741688 0
M  V30 2553 O 241.938 -1.78665 -0.307958 0
M  V30 2554 C 241.986 -1.66353 3.19936 0
M  V30 2555 O 241.09 -2.77004 3.0552 0
M  V30 2556 H 240.431 -0.235454 0.620852 0
M  V30 2557 H 242.961 -0.107335 2.04318 0
M  V30 2558 H 242.971 -2.05372 3.52543 0
M  V30 2559 H 241.646 -1.01881 4.03228 0
M  V30 2560 H 240.223 -2.41221 2.84371 0
M  V30 2561 N 242.408 -1.52605 -0.393616 0
M  V30 2562 C 243.656 -1.67093 -1.13685 0
M  V30 2563 C 243.977 -0.411011 -1.90619 0
M  V30 2564 O 243.247 0.574491 -1.87287 0
M  V30 2565 H 241.827 -0.615923 -0.422668 0
M  V30 2566 H 244.489 -1.89704 -0.447039 0
M  V30 2567 H 243.585 -2.51922 -1.84232 0
M  V30 2568 N 243.887 0.651787 -1.4349 0
M  V30 2569 C 245.112 1.44434 -1.48841 0
M  V30 2570 C 245.537 1.8779 -0.107955 0
M  V30 2571 O 244.895 1.57464 0.898602 0
M  V30 2572 C 244.943 2.65458 -2.44059 0
M  V30 2573 O 244.047 3.64566 -1.92784 0
M  V30 2574 H 243.388 0.433005 -0.503391 0
M  V30 2575 H 245.918 0.797451 -1.88419 0
M  V30 2576 H 245.928 3.13255 -2.6141 0
M  V30 2577 H 244.603 2.33244 -3.4434 0
M  V30 2578 H 243.18 3.23716 -1.851 0
M  V30 2579 N 245.365 1.30045 0.890287 0
M  V30 2580 C 246.328 1.15963 1.977 0
M  V30 2581 C 247.328 0.0923777 1.60534 0
M  V30 2582 O 248.518 0.340071 1.70848 0
M  V30 2583 C 245.65 0.775451 3.31963 0
M  V30 2584 H 246.843 2.12502 2.11619 0
M  V30 2585 H 244.396 1.13366 1.07601 0
M  V30 2586 H 245.131 -0.189671 3.23745 0
M  V30 2587 H 244.916 1.54668 3.60306 0
M  V30 2588 H 246.406 0.700251 4.11687 0
M  V30 2589 N 246.843 -1.10192 1.12674 0
M  V30 2590 C 248.071 -1.85983 0.906527 0
M  V30 2591 C 248.486 -1.80783 -0.544333 0
M  V30 2592 O 247.843 -1.19834 -1.37645 0
M  V30 2593 C 247.894 -3.34281 1.37618 0
M  V30 2594 O 247.615 -3.39401 2.77017 0
M  V30 2595 C 249.116 -4.26938 1.19325 0
M  V30 2596 H 246.336 -0.587716 0.323775 0
M  V30 2597 H 248.88 -1.39284 1.49734 0
M  V30 2598 H 247.035 -3.78436 0.828539 0
M  V30 2599 H 247.449 -4.31838 2.97684 0
M  V30 2600 H 248.923 -5.29181 1.57071 0
M  V30 2601 H 249.4 -4.38995 0.134097 0
M  V30 2602 H 250.006 -3.8859 1.72852 0
M  V30 2603 N 248.321 -0.919034 -1.28029 0
M  V30 2604 C 249.568 -0.554934 -1.94748 0
M  V30 2605 C 249.896 0.90231 -1.72304 0
M  V30 2606 O 249.151 1.65767 -1.04018 0
M  V30 2607 C 249.45 -0.816855 -3.4794 0
M  V30 2608 C 249.116 -2.25448 -3.90492 0
M  V30 2609 C 247.778 -2.64752 -4.01821 0
M  V30 2610 C 250.13 -3.18977 -4.12193 0
M  V30 2611 C 247.458 -3.96727 -4.32232 0
M  V30 2612 C 249.81 -4.50523 -4.44086 0
M  V30 2613 C 248.474 -4.89673 -4.53626 0
M  V30 2614 H 247.744 -0.203065 -0.712633 0
M  V30 2615 H 250.391 -1.16136 -1.52265 0
M  V30 2616 H 248.696 -0.127677 -3.91592 0
M  V30 2617 H 250.393 -0.514238 -3.97689 0
M  V30 2618 H 246.983 -1.93952 -3.82205 0
M  V30 2619 H 251.167 -2.89817 -4.02889 0
M  V30 2620 H 246.423 -4.26754 -4.37825 0
M  V30 2621 H 250.597 -5.23005 -4.59825 0
M  V30 2622 H 248.224 -5.91969 -4.76946 0
M  V30 2623 N 249.799 1.42003 -0.683588 0
M  V30 2624 C 251.027 2.05746 -0.218182 0
M  V30 2625 C 251.442 1.51396 1.12804 0
M  V30 2626 O 250.799 0.657303 1.70252 0
M  V30 2627 C 250.85 3.61171 -0.154131 0
M  V30 2628 O 250.571 4.13508 -1.44716 0
M  V30 2629 C 252.072 4.42042 0.333713 0
M  V30 2630 H 249.292 0.662888 -0.10402 0
M  V30 2631 H 251.836 1.81987 -0.9328 0
M  V30 2632 H 249.991 3.84012 0.511231 0
M  V30 2633 H 250.405 5.07453 -1.32632 0
M  V30 2634 H 251.879 5.51028 0.327423 0
M  V30 2635 H 252.356 4.17269 1.37053 0
M  V30 2636 H 252.962 4.24239 -0.300222 0
M  V30 2637 N 251.277 0.427512 1.51691 0
M  V30 2638 C 252.502 -0.143601 2.06902 0
M  V30 2639 C 252.927 -1.36536 1.29382 0
M  V30 2640 O 252.285 -1.78289 0.329043 0
M  V30 2641 C 252.333 -0.454207 3.57728 0
M  V30 2642 O 251.437 -1.54228 3.82475 0
M  V30 2643 H 250.778 -0.00617128 0.663971 0
M  V30 2644 H 253.308 0.606014 1.95419 0
M  V30 2645 H 253.318 -0.707525 4.01818 0
M  V30 2646 H 251.993 0.438812 4.13579 0
M  V30 2647 H 250.57 -1.2797 3.50254 0
M  V30 2648 N 252.755 -1.56801 0.158532 0
M  V30 2649 C 254.032 -1.88131 -0.535357 0
M  V30 2650 C 254.412 -1.06638 -1.82186 0
M  V30 2651 O 253.76 -0.156533 -2.27963 0
M  V30 2652 C 253.97 -3.39949 -0.789653 0
M  V30 2653 C 255.318 -4.09416 -1.12533 0
M  V30 2654 O 256.342 -3.45194 -0.878622 0
M  V30 2655 O 255.201 -5.22855 -1.59014 0
M  V30 2656 H 252.295 -0.780143 -0.27442 0
M  V30 2657 H 254.841 -1.68564 0.19601 0
M  V30 2658 H 253.613 -3.91115 0.120353 0
M  V30 2659 H 253.236 -3.65084 -1.57479 0
M  V30 2660 N 254.233 0.115231 -1.57178 0
M  V30 2661 C 255.481 0.820727 -1.84685 0
M  V30 2662 C 255.802 1.80237 -0.744279 0
M  V30 2663 O 255.072 1.94529 0.231375 0
M  V30 2664 H 253.652 0.306084 -0.681411 0
M  V30 2665 H 256.314 0.101656 -1.94635 0
M  V30 2666 H 255.41 1.36366 -2.80733 0
M  V30 2667 N 255.711 1.52812 0.385517 0
M  V30 2668 C 256.658 1.77838 1.47113 0
M  V30 2669 C 257.628 0.621757 1.54024 0
M  V30 2670 O 258.813 0.861846 1.70226 0
M  V30 2671 C 255.953 1.95618 2.84302 0
M  V30 2672 C 255.066 3.23316 2.86515 0
M  V30 2673 C 254.201 3.31394 4.15152 0
M  V30 2674 C 253.24 4.53201 4.1143 0
M  V30 2675 N 252.377 4.58542 5.3168 0
M  V30 2676 H 257.217 2.70482 1.25073 0
M  V30 2677 H 254.754 1.34006 0.606692 0
M  V30 2678 H 256.712 2.03912 3.63972 0
M  V30 2679 H 255.342 1.06331 3.04784 0
M  V30 2680 H 254.394 3.24076 1.99195 0
M  V30 2681 H 255.706 4.13045 2.79634 0
M  V30 2682 H 254.86 3.3889 5.03228 0
M  V30 2683 H 253.599 2.39645 4.24761 0
M  V30 2684 H 252.604 4.45827 3.21742 0
M  V30 2685 H 253.829 5.46271 4.03442 0
M  V30 2686 H 251.775 3.69686 5.41912 0
M  V30 2687 H 251.692 5.42148 5.26889 0
M  V30 2688 H 252.96 4.70296 6.21644 0
M  V30 2689 N 257.189 -0.644168 1.43834 0
M  V30 2690 C 258.438 -1.39985 1.45214 0
M  V30 2691 C 258.751 -1.95421 0.0835494 0
M  V30 2692 O 259.957 -2.71488 -0.0251748 0
M  V30 2693 C 258.413 -2.53384 2.55587 0
M  V30 2694 C 258.021 -2.04517 3.98594 0
M  V30 2695 C 259.765 -3.30685 2.66172 0
M  V30 2696 C 257.672 -3.1518 5.00416 0
M  V30 2697 H 256.602 -0.526005 0.540218 0
M  V30 2698 H 259.253 -0.694367 1.69855 0
M  V30 2699 H 257.635 -3.26446 2.24163 0
M  V30 2700 H 258.809 -1.38405 4.39523 0
M  V30 2701 H 257.124 -1.40068 3.92135 0
M  V30 2702 H 259.721 -4.13158 3.39418 0
M  V30 2703 H 260.064 -3.79312 1.71546 0
M  V30 2704 H 260.597 -2.64708 2.96942 0
M  V30 2705 H 257.336 -2.71511 5.96625 0
M  V30 2706 H 256.856 -3.79974 4.64091 0
M  V30 2707 H 258.535 -3.80166 5.23529 0
M  V30 2708 N 258.668 -1.30515 -0.883378 0
M  V30 2709 C 260.084 -1.08881 -1.16692 0
M  V30 2710 C 260.284 0.149409 -2.00945 0
M  V30 2711 O 259.34 0.84257 -2.38027 0
M  V30 2712 C 260.653 -2.35319 -1.87204 0
M  V30 2713 C 262.201 -2.40799 -1.99962 0
M  V30 2714 C 262.676 -3.67083 -2.73887 0
M  V30 2715 N 264.167 -3.679 -2.81432 0
M  V30 2716 C 264.902 -4.62303 -3.3921 0
M  V30 2717 N 264.398 -5.67052 -3.98025 0
M  V30 2718 N 266.191 -4.49845 -3.3704 0
M  V30 2719 H 258.342 -2.09951 -0.321633 0
M  V30 2720 H 260.605 -0.92556 -0.205043 0
M  V30 2721 H 260.311 -3.25689 -1.3274 0
M  V30 2722 H 260.185 -2.44089 -2.87577 0
M  V30 2723 H 262.572 -1.50907 -2.53597 0
M  V30 2724 H 262.653 -2.36003 -0.98673 0
M  V30 2725 H 262.297 -4.57334 -2.20925 0
M  V30 2726 H 262.227 -3.69141 -3.75556 0
M  V30 2727 H 264.718 -2.92171 -2.39676 0
M  V30 2728 H 265.031 -6.35184 -4.40183 0
M  V30 2729 H 263.376 -5.70842 -3.96439 0
M  V30 2730 H 266.567 -3.67194 -2.90321 0
M  V30 2731 H 266.74 -5.23597 -3.81772 0
M  V30 2732 N 260.146 1.09593 -1.13257 0
M  V30 2733 C 261.076 2.18214 -0.830946 0
M  V30 2734 C 262.057 1.68812 0.208966 0
M  V30 2735 O 263.242 1.9408 0.0682666 0
M  V30 2736 C 260.372 3.46051 -0.294296 0
M  V30 2737 C 259.326 4.08778 -1.26826 0
M  V30 2738 C 258.652 5.31419 -0.591449 0
M  V30 2739 C 259.952 4.51476 -2.62615 0
M  V30 2740 H 261.646 2.43703 -1.73923 0
M  V30 2741 H 259.192 1.17128 -0.837675 0
M  V30 2742 H 261.145 4.2134 -0.0709606 0
M  V30 2743 H 259.869 3.20079 0.649366 0
M  V30 2744 H 258.528 3.35505 -1.47756 0
M  V30 2745 H 258.176 5.01727 0.357633 0
M  V30 2746 H 257.876 5.74341 -1.24123 0
M  V30 2747 H 259.4 6.09433 -0.377355 0
M  V30 2748 H 260.814 5.17999 -2.45663 0
M  V30 2749 H 259.211 5.05277 -3.23752 0
M  V30 2750 H 260.281 3.63962 -3.20406 0
M  V30 2751 N 261.624 0.925811 1.2754 0
M  V30 2752 C 262.871 0.565255 1.94451 0
M  V30 2753 C 263.199 -0.89316 1.7278 0
M  V30 2754 O 262.454 -1.65213 1.04895 0
M  V30 2755 C 262.753 0.835296 3.47502 0
M  V30 2756 C 262.419 2.27515 3.89291 0
M  V30 2757 C 261.081 2.66879 4.00411 0
M  V30 2758 C 263.433 3.21158 4.10496 0
M  V30 2759 C 260.761 3.99014 4.30122 0
M  V30 2760 C 263.113 4.52871 4.4169 0
M  V30 2761 C 261.777 4.92072 4.51023 0
M  V30 2762 H 261.047 0.206841 0.711546 0
M  V30 2763 H 263.694 1.16942 1.51647 0
M  V30 2764 H 261.999 0.148442 3.91519 0
M  V30 2765 H 263.696 0.535322 3.97411 0
M  V30 2766 H 260.286 1.95976 3.81171 0
M  V30 2767 H 264.47 2.9195 4.01346 0
M  V30 2768 H 259.726 4.2907 4.35556 0
M  V30 2769 H 263.9 5.25436 4.57045 0
M  V30 2770 H 261.527 5.9449 4.738 0
M  V30 2771 N 263.102 -1.41638 0.69111 0
M  V30 2772 C 264.332 -2.0533 0.228758 0
M  V30 2773 C 264.74 -1.52089 -1.12541 0
M  V30 2774 O 264.083 -0.662145 -1.71351 0
M  V30 2775 C 264.145 -3.59349 0.10407 0
M  V30 2776 C 263.809 -4.35362 1.38956 0
M  V30 2777 C 264.806 -4.64942 2.32648 0
M  V30 2778 C 262.491 -4.74714 1.64169 0
M  V30 2779 C 264.485 -5.32828 3.49818 0
M  V30 2780 C 262.172 -5.42338 2.81625 0
M  V30 2781 C 263.17 -5.71322 3.74273 0
M  V30 2782 O 262.858 -6.37554 4.89673 0
M  V30 2783 H 262.59 -0.667796 0.104997 0
M  V30 2784 H 265.144 -1.82477 0.942938 0
M  V30 2785 H 263.374 -3.80924 -0.665839 0
M  V30 2786 H 265.063 -4.04633 -0.320519 0
M  V30 2787 H 265.829 -4.35025 2.14425 0
M  V30 2788 H 261.708 -4.51538 0.929202 0
M  V30 2789 H 265.252 -5.55368 4.22152 0
M  V30 2790 H 261.149 -5.71673 2.99768 0
M  V30 2791 H 261.917 -6.56049 4.8943 0
M  V30 2792 N 264.58 -0.43555 -1.51462 0
M  V30 2793 C 265.808 0.130242 -2.0649 0
M  V30 2794 C 266.223 1.36614 -1.30315 0
M  V30 2795 O 265.58 1.78869 -0.362223 0
M  V30 2796 C 265.631 0.454253 -3.58635 0
M  V30 2797 O 265.352 -0.73259 -4.31931 0
M  V30 2798 C 266.853 1.07091 -4.3017 0
M  V30 2799 H 264.073 0.00871669 -0.670943 0
M  V30 2800 H 266.617 -0.614117 -1.95061 0
M  V30 2801 H 264.772 1.14851 -3.69984 0
M  V30 2802 H 265.186 -0.455787 -5.22516 0
M  V30 2803 H 266.66 1.24764 -5.37716 0
M  V30 2804 H 267.137 2.05144 -3.88346 0
M  V30 2805 H 267.743 0.416089 -4.2326 0
M  V30 2806 N 266.058 1.56714 -0.166846 0
M  V30 2807 C 267.335 1.88412 0.525373 0
M  V30 2808 C 267.715 1.07602 1.81618 0
M  V30 2809 O 267.063 0.168621 2.27877 0
M  V30 2810 C 267.273 3.40363 0.771613 0
M  V30 2811 C 268.621 4.10007 1.1036 0
M  V30 2812 O 269.645 3.45655 0.860304 0
M  V30 2813 O 268.504 5.2369 1.56239 0
M  V30 2814 H 265.598 0.781587 0.270278 0
M  V30 2815 H 268.144 1.68458 -0.204946 0
M  V30 2816 H 266.916 3.91046 -0.141093 0
M  V30 2817 H 266.539 3.65914 1.55541 0
M  V30 2818 N 267.536 -0.106894 1.57237 0
M  V30 2819 C 268.783 -0.812526 1.85484 0
M  V30 2820 C 269.111 -1.79304 0.753687 0
M  V30 2821 O 268.366 -1.94047 -0.253853 0
M  V30 2822 C 268.665 -1.58628 3.20268 0
M  V30 2823 C 268.331 -0.748967 4.44636 0
M  V30 2824 C 266.993 -0.518104 4.78403 0
M  V30 2825 C 269.345 -0.166122 5.20935 0
M  V30 2826 C 266.673 0.305659 5.85903 0
M  V30 2827 C 269.025 0.644899 6.29304 0
M  V30 2828 C 267.689 0.885965 6.61594 0
M  V30 2829 H 266.959 -0.297324 0.678734 0
M  V30 2830 H 269.606 -0.0744332 1.91355 0
M  V30 2831 H 267.911 -2.39562 3.10028 0
M  V30 2832 H 269.608 -2.13643 3.39349 0
M  V30 2833 H 266.198 -0.939006 4.18187 0
M  V30 2834 H 270.382 -0.33167 4.95191 0
M  V30 2835 H 265.638 0.501528 6.0934 0
M  V30 2836 H 269.812 1.10345 6.87602 0
M  V30 2837 H 267.439 1.52609 7.44725 0
M  V30 2838 N 269.014 -1.53014 -0.377408 0
M  V30 2839 C 270.239 -1.72818 -1.14668 0
M  V30 2840 C 270.664 -0.450725 -1.8262 0
M  V30 2841 O 270.022 0.59439 -1.7128 0
M  V30 2842 C 270.07 -2.88627 -2.16164 0
M  V30 2843 O 269.174 -2.56409 -3.22998 0
M  V30 2844 H 268.515 -0.574301 -0.333278 0
M  V30 2845 H 271.045 -1.99853 -0.438152 0
M  V30 2846 H 271.055 -3.14455 -2.59966 0
M  V30 2847 H 269.73 -3.81294 -1.66095 0
M  V30 2848 H 268.307 -2.4136 -2.84253 0
M  V30 2849 N 270.492 0.636531 -1.44174 0
M  V30 2850 C 271.74 1.39343 -1.46383 0
M  V30 2851 C 272.061 1.94766 -0.0955715 0
M  V30 2852 O 271.331 1.75452 0.871395 0
M  V30 2853 H 269.911 0.517199 -0.538994 0
M  V30 2854 H 272.573 0.74957 -1.7991 0
M  V30 2855 H 271.669 2.22746 -2.18611 0
M  V30 2856 N 271.97 1.30982 0.876444 0
M  V30 2857 C 272.917 1.18085 1.98304 0
M  V30 2858 C 273.887 0.0682263 1.6596 0
M  V30 2859 O 275.072 0.239937 1.89285 0
M  V30 2860 C 272.212 0.887475 3.33493 0
M  V30 2861 C 271.325 2.08281 3.78475 0
M  V30 2862 C 270.46 1.72678 5.0235 0
M  V30 2863 C 269.499 2.88657 5.39762 0
M  V30 2864 N 268.636 2.53292 6.54819 0
M  V30 2865 H 273.476 2.1275 2.08666 0
M  V30 2866 H 271.013 1.05839 1.02159 0
M  V30 2867 H 272.971 0.697961 4.1132 0
M  V30 2868 H 271.601 -0.022315 3.22792 0
M  V30 2869 H 270.653 2.3833 2.96484 0
M  V30 2870 H 271.965 2.95108 4.02135 0
M  V30 2871 H 271.119 1.50151 5.87826 0
M  V30 2872 H 269.858 0.830327 4.8058 0
M  V30 2873 H 268.863 3.1184 4.52809 0
M  V30 2874 H 270.088 3.79002 5.63502 0
M  V30 2875 H 268.034 1.66163 6.34607 0
M  V30 2876 H 267.951 3.3365 6.7839 0
M  V30 2877 H 269.219 2.34143 7.43503 0
M  V30 2878 N 273.449 -1.08991 1.13837 0
M  V30 2879 C 274.399 -2.1393 0.788535 0
M  V30 2880 C 275.383 -1.59396 -0.219516 0
M  V30 2881 O 276.575 -1.76985 -0.0227557 0
M  V30 2882 C 273.704 -3.42305 0.261147 0
M  V30 2883 C 272.79 -4.03736 1.29837 0
M  V30 2884 N 273.181 -4.39659 2.50067 0
M  V30 2885 C 271.479 -4.30993 1.1472 0
M  V30 2886 C 272.18 -4.88113 3.16419 0
M  V30 2887 N 271.156 -4.85846 2.43832 0
M  V30 2888 H 274.958 -2.39516 1.70322 0
M  V30 2889 H 272.472 -1.26263 1.02134 0
M  V30 2890 H 274.469 -4.16899 -0.0077405 0
M  V30 2891 H 273.129 -3.18172 -0.647805 0
M  V30 2892 H 274.14 -4.30878 2.8734 0
M  V30 2893 H 270.817 -4.16444 0.296773 0
M  V30 2894 H 272.207 -5.25336 4.18894 0
M  V30 2895 N 274.927 -0.932562 -1.27047 0
M  V30 2896 C 276.157 -0.591173 -1.97961 0
M  V30 2897 C 276.565 0.836219 -1.69717 0
M  V30 2898 O 275.908 1.56801 -0.957036 0
M  V30 2899 C 275.97 -0.743082 -3.51736 0
M  V30 2900 C 275.634 -2.1435 -4.03613 0
M  V30 2901 C 276.631 -3.11815 -4.16014 0
M  V30 2902 C 274.316 -2.46175 -4.37839 0
M  V30 2903 C 276.31 -4.39211 -4.61923 0
M  V30 2904 C 273.997 -3.73806 -4.83438 0
M  V30 2905 C 274.995 -4.70137 -4.95439 0
M  V30 2906 O 274.683 -5.95496 -5.40037 0
M  V30 2907 H 274.415 -0.222375 -0.638377 0
M  V30 2908 H 276.969 -1.25317 -1.62742 0
M  V30 2909 H 275.199 -0.0239739 -3.86693 0
M  V30 2910 H 276.888 -0.40603 -4.03864 0
M  V30 2911 H 277.654 -2.88549 -3.89826 0
M  V30 2912 H 273.533 -1.71936 -4.27737 0
M  V30 2913 H 277.077 -5.14404 -4.71205 0
M  V30 2914 H 272.974 -3.96888 -5.09068 0
M  V30 2915 H 273.742 -5.98554 -5.58279 0
M  V30 2916 N 276.405 1.4127 -0.698611 0
M  V30 2917 C 277.653 2.00782 -0.230409 0
M  V30 2918 C 277.974 1.5562 1.17505 0
M  V30 2919 O 277.244 0.78815 1.79346 0
M  V30 2920 H 275.824 0.742464 -0.0821944 0
M  V30 2921 H 278.486 1.72852 -0.90045 0
M  V30 2922 H 277.582 3.11095 -0.25021 0
M  V30 2923 N 277.883 0.443576 1.51229 0
M  V30 2924 C 278.83 -0.364716 2.279 0
M  V30 2925 C 279.8 -1.0114 1.31757 0
M  V30 2926 O 280.985 -1.02912 1.60667 0
M  V30 2927 C 278.125 -1.45644 3.12861 0
M  V30 2928 C 277.238 -0.827269 4.24005 0
M  V30 2929 C 276.373 -1.89456 4.96266 0
M  V30 2930 C 275.412 -1.24416 5.99322 0
M  V30 2931 N 274.549 -2.25309 6.64966 0
M  V30 2932 H 279.389 0.295464 2.96532 0
M  V30 2933 H 276.926 0.157554 1.46254 0
M  V30 2934 H 278.884 -2.10076 3.6045 0
M  V30 2935 H 277.514 -2.08616 2.46331 0
M  V30 2936 H 276.566 -0.0710839 3.80334 0
M  V30 2937 H 277.878 -0.312481 4.9782 0
M  V30 2938 H 277.032 -2.61535 5.47434 0
M  V30 2939 H 275.771 -2.4431 4.22095 0
M  V30 2940 H 274.776 -0.508868 5.4744 0
M  V30 2941 H 276.001 -0.702882 6.75453 0
M  V30 2942 H 273.947 -2.79231 5.93604 0
M  V30 2943 H 273.864 -1.78739 7.34567 0
M  V30 2944 H 275.132 -2.96853 7.20763 0
M  V30 2945 N 279.361 -1.56624 0.175154 0
M  V30 2946 C 280.293 -2.15333 -0.785128 0
M  V30 2947 C 281.306 -1.1099 -1.19101 0
M  V30 2948 O 282.495 -1.38162 -1.13019 0
M  V30 2949 C 279.595 -2.68427 -2.06882 0
M  V30 2950 C 278.768 -3.97466 -1.8259 0
M  V30 2951 C 277.827 -4.35585 -2.95215 0
M  V30 2952 O 276.853 -5.03389 -2.65684 0
M  V30 2953 N 278.055 -3.97457 -4.23094 0
M  V30 2954 H 280.82 -2.98359 -0.283187 0
M  V30 2955 H 278.381 -1.61898 -0.00749817 0
M  V30 2956 H 280.373 -2.90924 -2.81328 0
M  V30 2957 H 278.943 -1.89968 -2.48256 0
M  V30 2958 H 278.163 -3.83307 -0.920287 0
M  V30 2959 H 279.451 -4.81736 -1.63733 0
M  V30 2960 H 278.849 -3.42878 -4.49945 0
M  V30 2961 H 277.406 -4.24947 -4.9423 0
M  V30 2962 N 280.839 0.0985539 -1.57292 0
M  V30 2963 C 282.067 0.816318 -1.90115 0
M  V30 2964 C 282.482 1.72451 -0.768509 0
M  V30 2965 O 281.839 1.80643 0.259687 0
M  V30 2966 C 281.89 1.63259 -3.22535 0
M  V30 2967 O 281.611 0.760934 -4.31441 0
M  V30 2968 C 283.112 2.45372 -3.69199 0
M  V30 2969 H 280.332 0.233595 -0.629027 0
M  V30 2970 H 282.876 0.0768229 -2.04356 0
M  V30 2971 H 281.031 2.32463 -3.09903 0
M  V30 2972 H 281.445 1.32595 -5.07463 0
M  V30 2973 H 282.919 2.98144 -4.64558 0
M  V30 2974 H 283.396 3.23677 -2.96867 0
M  V30 2975 H 284.002 1.81373 -3.84687 0
M  V30 2976 N 282.317 1.53212 0.369288 0
M  V30 2977 C 283.247 1.82365 1.45826 0
M  V30 2978 C 284.228 0.676907 1.56051 0
M  V30 2979 O 285.413 0.926401 1.70679 0
M  V30 2980 C 282.543 2.01023 2.83208 0
M  V30 2981 C 281.497 3.1678 2.8781 0
M  V30 2982 C 280.823 3.20724 4.27832 0
M  V30 2983 C 282.123 4.55447 2.55667 0
M  V30 2984 H 283.817 2.73559 1.21678 0
M  V30 2985 H 281.363 1.3163 0.583911 0
M  V30 2986 H 283.316 2.20001 3.59413 0
M  V30 2987 H 282.04 1.06536 3.08736 0
M  V30 2988 H 280.699 2.97616 2.14056 0
M  V30 2989 H 280.347 2.23882 4.50429 0
M  V30 2990 H 280.047 3.98496 4.31827 0
M  V30 2991 H 281.571 3.41881 5.05915 0
M  V30 2992 H 282.985 4.74611 3.21586 0
M  V30 2993 H 281.382 5.35432 2.70984 0
M  V30 2994 H 282.452 4.60812 1.5093 0
M  V30 2995 N 283.795 -0.628877 1.44509 0
M  V30 2996 C 285.023 -1.41554 1.50897 0
M  V30 2997 C 285.438 -1.8832 0.134564 0
M  V30 2998 O 284.795 -1.60969 -0.859965 0
M  V30 2999 C 284.846 -2.63435 2.47556 0
M  V30 3000 O 284.567 -2.18619 3.79654 0
M  V30 3001 C 286.068 -3.56537 2.63431 0
M  V30 3002 H 283.288 -0.434044 0.511709 0
M  V30 3003 H 285.832 -0.768895 1.89495 0
M  V30 3004 H 283.987 -3.24187 2.12089 0
M  V30 3005 H 284.401 -2.97652 4.31861 0
M  V30 3006 H 285.875 -4.38657 3.35088 0
M  V30 3007 H 286.352 -4.05493 1.68738 0
M  V30 3008 H 286.958 -3.01653 2.9981 0
M  V30 3009 N 285.273 -1.31445 -0.869486 0
M  V30 3010 C 286.501 -1.24122 -1.65534 0
M  V30 3011 C 286.916 0.193387 -1.87807 0
M  V30 3012 O 286.273 1.12557 -1.43656 0
M  V30 3013 C 286.324 -1.98229 -3.02304 0
M  V30 3014 O 286.045 -3.3609 -2.81026 0
M  V30 3015 C 287.546 -1.97751 -3.96749 0
M  V30 3016 H 284.766 -0.428868 -0.516055 0
M  V30 3017 H 287.31 -1.73328 -1.08525 0
M  V30 3018 H 285.465 -1.52782 -3.56001 0
M  V30 3019 H 285.879 -3.7383 -3.67902 0
M  V30 3020 H 287.353 -2.54114 -4.90031 0
M  V30 3021 H 287.83 -0.960137 -4.28577 0
M  V30 3022 H 288.436 -2.43079 -3.48988 0
M  V30 3023 N 286.751 1.08385 -1.14413 0
M  V30 3024 C 287.714 2.13486 -0.834048 0
M  V30 3025 C 288.714 1.59988 0.161418 0
M  V30 3026 O 289.904 1.74071 -0.0669575 0
M  V30 3027 C 287.036 3.4003 -0.243354 0
M  V30 3028 H 288.229 2.42425 -1.7655 0
M  V30 3029 H 285.782 1.24101 -0.950189 0
M  V30 3030 H 286.517 3.16726 0.696807 0
M  V30 3031 H 286.302 3.80157 -0.960367 0
M  V30 3032 H 287.792 4.17577 -0.0436242 0
M  V30 3033 N 288.23 0.939286 1.26551 0
M  V30 3034 C 289.162 0.404704 2.25599 0
M  V30 3035 C 290.175 -0.470983 1.55838 0
M  V30 3036 O 291.364 -0.281734 1.76263 0
M  V30 3037 C 288.464 -0.43764 3.36062 0
M  V30 3038 C 287.637 0.421449 4.35365 0
M  V30 3039 C 286.696 -0.36015 5.24966 0
M  V30 3040 O 285.722 0.236167 5.6871 0
M  V30 3041 N 286.924 -1.65715 5.56344 0
M  V30 3042 H 289.689 1.25618 2.72103 0
M  V30 3043 H 287.25 0.807963 1.40298 0
M  V30 3044 H 289.242 -0.967866 3.92956 0
M  V30 3045 H 287.812 -1.18991 2.89067 0
M  V30 3046 H 287.032 1.1329 3.7757 0
M  V30 3047 H 288.32 1.00835 4.98708 0
M  V30 3048 H 287.718 -2.16378 5.22682 0
M  V30 3049 H 286.275 -2.13366 6.15888 0
M  V30 3050 N 289.708 -1.40897 0.706093 0
M  V30 3051 C 290.954 -2.01352 0.241889 0
M  V30 3052 C 291.287 -1.55832 -1.15888 0
M  V30 3053 O 290.562 -0.774145 -1.7843 0
M  V30 3054 C 290.845 -3.58752 0.311311 0
M  V30 3055 C 290.698 -4.1437 1.74978 0
M  V30 3056 C 292.017 -4.38914 -0.322922 0
M  V30 3057 H 289.136 -0.731562 0.0893687 0
M  V30 3058 H 291.778 -1.67504 0.896802 0
M  V30 3059 H 289.928 -3.87718 -0.246302 0
M  V30 3060 H 291.6 -3.96239 2.36205 0
M  V30 3061 H 289.843 -3.69016 2.28057 0
M  V30 3062 H 290.514 -5.23532 1.74981 0
M  V30 3063 H 292.99 -4.15822 0.152089 0
M  V30 3064 H 291.866 -5.48358 -0.243855 0
M  V30 3065 H 292.127 -4.19176 -1.40513 0
M  V30 3066 N 291.186 -0.45159 -1.50991 0
M  V30 3067 C 292.134 0.366864 -2.29689 0
M  V30 3068 C 293.128 1.00809 -1.36139 0
M  V30 3069 O 294.334 0.941427 -1.53418 0
M  V30 3070 H 290.709 0.137133 -0.739391 0
M  V30 3071 H 292.68 -0.317538 -2.96706 0
M  V30 3072 C 291.429 1.44751 -3.16137 0
M  V30 3073 H 290.752 0.963473 -3.88017 0
M  V30 3074 H 292.192 1.99315 -3.74232 0
M  V30 3075 C 290.651 2.43869 -2.32442 0
M  V30 3076 O 291.181 3.4872 -1.99392 0
M  V30 3077 N 289.387 2.15105 -1.95392 0
M  V30 3078 H 288.934 1.29866 -2.22469 0
M  V30 3079 H 288.892 2.81661 -1.39693 0
M  V30 3080 N 292.664 1.56529 -0.183458 0
M  V30 3081 C 293.91 1.97537 0.459036 0
M  V30 3082 C 294.243 1.06989 1.62071 0
M  V30 3083 O 293.518 0.11948 1.94133 0
M  V30 3084 C 293.801 3.47874 0.930368 0
M  V30 3085 C 293.654 4.492 -0.232317 0
M  V30 3086 C 294.973 4.01612 1.79989 0
M  V30 3087 H 292.092 0.718204 0.165383 0
M  V30 3088 H 294.734 1.88042 -0.272038 0
M  V30 3089 H 292.884 3.56095 1.55333 0
M  V30 3090 H 294.556 4.53027 -0.86972 0
M  V30 3091 H 292.799 4.24657 -0.885928 0
M  V30 3092 H 293.47 5.51823 0.139796 0
M  V30 3093 H 295.946 3.96097 1.27461 0
M  V30 3094 H 294.822 5.07195 2.09867 0
M  V30 3095 H 295.083 3.46163 2.74998 0
M  V30 3096 N 294.142 -0.090211 1.57342 0
M  V30 3097 C 295.367 -0.810082 1.90925 0
M  V30 3098 C 295.792 -1.71248 0.778187 0
M  V30 3099 O 295.15 -1.79278 -0.269991 0
M  V30 3100 C 295.198 -1.59529 3.23393 0
M  V30 3101 O 294.302 -2.70461 3.11327 0
M  V30 3102 H 293.643 -0.222231 0.625707 0
M  V30 3103 H 296.173 -0.0639716 2.045 0
M  V30 3104 H 296.183 -1.97847 3.5682 0
M  V30 3105 H 294.858 -0.933055 4.05299 0
M  V30 3106 H 293.435 -2.35135 2.89423 0
M  V30 3107 N 295.62 -1.53406 -0.361157 0
M  V30 3108 C 296.583 -1.79479 -1.42548 0
M  V30 3109 C 297.583 -0.665327 -1.4639 0
M  V30 3110 O 298.773 -0.933549 -1.47073 0
M  V30 3111 C 295.905 -1.92087 -2.8163 0
M  V30 3112 H 297.098 -2.74538 -1.20701 0
M  V30 3113 H 294.651 -1.4455 -0.594546 0
M  V30 3114 H 295.386 -0.991099 -3.08784 0
M  V30 3115 H 295.171 -2.74241 -2.80239 0
M  V30 3116 H 296.661 -2.13836 -3.58697 0
M  V30 3117 N 297.098 0.621204 -1.44841 0
M  V30 3118 C 298.323 1.41244 -1.51871 0
M  V30 3119 C 298.748 1.87519 -0.147764 0
M  V30 3120 O 298.106 1.59334 0.865 0
M  V30 3121 C 298.154 2.60221 -2.49634 0
M  V30 3122 O 297.258 3.60395 -2.00473 0
M  V30 3123 H 296.599 0.42223 -0.512463 0
M  V30 3124 H 299.129 0.757305 -1.90069 0
M  V30 3125 H 299.139 3.0764 -2.67996 0
M  V30 3126 H 297.814 2.25887 -3.4921 0
M  V30 3127 H 296.391 3.19717 -1.91925 0
M  V30 3128 N 298.576 1.31904 0.862503 0
M  V30 3129 C 299.853 1.12644 1.59908 0
M  V30 3130 C 300.233 -0.316104 2.0872 0
M  V30 3131 O 299.581 -1.31145 1.87118 0
M  V30 3132 C 299.791 2.1472 2.7513 0
M  V30 3133 C 301.139 2.47637 3.44907 0
M  V30 3134 O 302.163 2.13205 2.85346 0
M  V30 3135 O 301.022 3.06632 4.52371 0
M  V30 3136 H 298.116 0.43416 0.703871 0
M  V30 3137 H 300.662 1.43408 0.907314 0
M  V30 3138 H 299.434 3.1172 2.3653 0
M  V30 3139 H 299.057 1.84905 3.51989 0
M  V30 3140 N 300.054 -1.07777 1.14986 0
M  V30 3141 C 301.279 -1.84558 0.946213 0
M  V30 3142 C 301.704 -1.81323 -0.500362 0
M  V30 3143 O 301.062 -1.20301 -1.35637 0
M  V30 3144 C 301.11 -3.29736 1.45968 0
M  V30 3145 O 300.214 -4.07149 0.65601 0
M  V30 3146 H 299.555 -0.571641 0.33782 0
M  V30 3147 H 302.085 -1.35991 1.52865 0
M  V30 3148 H 302.095 -3.80574 1.47063 0
M  V30 3149 H 300.77 -3.31406 2.51283 0
M  V30 3150 H 299.347 -3.65994 0.714322 0
M  V30 3151 N 301.532 -0.945985 -1.26051 0
M  V30 3152 C 302.757 -0.612525 -1.98149 0
M  V30 3153 C 303.182 0.806623 -1.69927 0
M  V30 3154 O 302.54 1.54411 -0.950108 0
M  V30 3155 C 302.588 -0.866981 -3.50023 0
M  V30 3156 O 301.692 0.0585333 -4.12358 0
M  V30 3157 H 301.033 -0.23379 -0.621481 0
M  V30 3158 H 303.563 -1.27023 -1.60395 0
M  V30 3159 H 303.573 -0.789792 -4.00283 0
M  V30 3160 H 302.248 -1.90135 -3.69894 0
M  V30 3161 H 300.825 -0.0701241 -3.72834 0
M  V30 3162 N 303.011 1.40521 -0.713556 0
M  V30 3163 C 303.941 2.33381 -0.0743864 0
M  V30 3164 C 304.922 1.52784 0.747735 0
M  V30 3165 O 306.107 1.81258 0.697071 0
M  V30 3166 C 303.237 3.36748 0.849598 0
M  V30 3167 C 302.191 4.27793 0.133247 0
M  V30 3168 C 301.517 5.21679 1.17281 0
M  V30 3169 C 302.817 5.12415 -1.01134 0
M  V30 3170 H 304.511 2.87081 -0.850007 0
M  V30 3171 H 302.057 1.38034 -0.410201 0
M  V30 3172 H 304.01 4.00648 1.30612 0
M  V30 3173 H 302.734 2.81439 1.65709 0
M  V30 3174 H 301.393 3.65342 -0.303426 0
M  V30 3175 H 301.041 4.62677 1.9733 0
M  V30 3176 H 300.741 5.83435 0.698397 0
M  V30 3177 H 302.265 5.88456 1.62947 0
M  V30 3178 H 303.679 5.69781 -0.634274 0
M  V30 3179 H 302.076 5.83203 -1.41399 0
M  V30 3180 H 303.146 4.48514 -1.84292 0
M  V30 3181 N 304.489 0.459591 1.5075 0
M  V30 3182 C 305.437 -0.354678 2.2988 0
M  V30 3183 C 306.431 -1.00086 1.36672 0
M  V30 3184 O 307.637 -0.933277 1.53915 0
M  V30 3185 H 304.012 -0.13321 0.740107 0
M  V30 3186 H 305.983 0.333269 2.96533 0
M  V30 3187 C 304.732 -1.43073 3.169 0
M  V30 3188 H 304.055 -0.942882 3.88523 0
M  V30 3189 H 305.495 -1.97328 3.75284 0
M  V30 3190 C 303.954 -2.42633 2.33732 0
M  V30 3191 O 304.484 -3.47658 2.01238 0
M  V30 3192 N 302.69 -2.14066 1.9653 0
M  V30 3193 H 302.237 -1.28685 2.23155 0
M  V30 3194 H 302.195 -2.80917 1.41185 0
M  V30 3195 N 305.967 -1.56429 0.191757 0
M  V30 3196 C 307.216 -1.9666 -0.448088 0
M  V30 3197 C 307.529 -1.08136 -1.62991 0
M  V30 3198 O 308.735 -1.38135 -2.33733 0
M  V30 3199 C 307.191 -3.49753 -0.848585 0
M  V30 3200 C 306.799 -4.46935 0.308764 0
M  V30 3201 C 308.543 -3.9876 -1.4557 0
M  V30 3202 C 306.45 -5.91293 -0.112506 0
M  V30 3203 H 305.38 -0.734312 -0.171179 0
M  V30 3204 H 308.031 -1.81301 0.283242 0
M  V30 3205 H 306.413 -3.60604 -1.63649 0
M  V30 3206 H 307.587 -4.47813 1.08627 0
M  V30 3207 H 305.902 -4.08102 0.827158 0
M  V30 3208 H 308.499 -5.04086 -1.78328 0
M  V30 3209 H 308.842 -3.42875 -2.36099 0
M  V30 3210 H 309.375 -3.9101 -0.731836 0
M  V30 3211 H 306.114 -6.51097 0.758514 0
M  V30 3212 H 305.634 -5.93676 -0.854941 0
M  V30 3213 H 307.313 -6.44663 -0.549448 0
M  V30 3214 N 307.445 0.0818655 -1.57387 0
M  V30 3215 C 308.393 1.11712 -2.04018 0
M  V30 3216 C 309.387 1.40683 -0.94364 0
M  V30 3217 O 310.593 1.40209 -1.12878 0
M  V30 3218 H 306.968 0.377542 -0.650358 0
M  V30 3219 H 308.939 0.697614 -2.90131 0
M  V30 3220 C 307.688 2.42537 -2.49141 0
M  V30 3221 H 307.011 2.21092 -3.33104 0
M  V30 3222 H 308.451 3.13446 -2.85531 0
M  V30 3223 C 306.91 3.0778 -1.37014 0
M  V30 3224 O 307.44 3.95436 -0.706621 0
M  V30 3225 N 305.646 2.68242 -1.11779 0
M  V30 3226 H 305.193 1.97052 -1.65917 0
M  V30 3227 H 305.151 3.1222 -0.369594 0
M  V30 3228 N 308.923 1.53595 0.353017 0
M  V30 3229 C 310.171 1.70049 1.09215 0
M  V30 3230 C 310.492 0.461406 1.89463 0
M  V30 3231 O 309.762 -0.524633 1.88744 0
M  V30 3232 H 308.342 0.626912 0.40619 0
M  V30 3233 H 311.004 1.90822 0.396585 0
M  V30 3234 H 310.1 2.56718 1.77488 0
M  V30 3235 N 310.401 -0.613514 1.45168 0
M  V30 3236 C 311.647 -1.37471 1.49096 0
M  V30 3237 C 311.98 -1.93765 0.129901 0
M  V30 3238 O 311.255 -1.74707 -0.854858 0
M  V30 3239 C 311.538 -2.52701 2.56542 0
M  V30 3240 C 311.391 -2.01643 4.0207 0
M  V30 3241 C 312.71 -3.54849 2.60327 0
M  V30 3242 H 309.829 -0.498502 0.54283 0
M  V30 3243 H 312.471 -0.692125 1.76945 0
M  V30 3244 H 310.621 -3.10931 2.32926 0
M  V30 3245 H 312.293 -1.48108 4.36877 0
M  V30 3246 H 310.536 -1.32688 4.13009 0
M  V30 3247 H 311.207 -2.84681 4.72928 0
M  V30 3248 H 313.683 -3.0645 2.81474 0
M  V30 3249 H 312.559 -4.32973 3.37381 0
M  V30 3250 H 312.82 -4.10079 1.6519 0
M  V30 3251 N 311.879 -1.3236 -0.855495 0
M  V30 3252 C 312.789 -1.23221 -1.99634 0
M  V30 3253 C 313.805 -0.145983 -1.73387 0
M  V30 3254 O 314.981 -0.366502 -1.98037 0
M  V30 3255 C 312.046 -0.954782 -3.33294 0
M  V30 3256 C 311.107 -2.12937 -3.72769 0
M  V30 3257 C 310.34 -1.86508 -5.00051 0
M  V30 3258 O 310.563 -0.807231 -5.64659 0
M  V30 3259 O 309.497 -2.72591 -5.36636 0
M  V30 3260 H 313.323 -2.19126 -2.1028 0
M  V30 3261 H 310.908 -1.12241 -0.986018 0
M  V30 3262 H 312.79 -0.816519 -4.13414 0
M  V30 3263 H 311.465 -0.0258854 -3.2369 0
M  V30 3264 H 310.372 -2.3231 -2.93228 0
M  V30 3265 H 311.705 -3.04102 -3.87018 0
M  V30 3266 N 313.357 1.07166 -1.15556 0
M  V30 3267 C 314.634 1.76546 -0.842069 0
M  V30 3268 C 315.014 2.00453 0.661939 0
M  V30 3269 O 314.362 1.62452 1.60691 0
M  V30 3270 C 314.572 3.07266 -1.65495 0
M  V30 3271 C 315.92 3.81578 -1.86234 0
M  V30 3272 O 316.944 3.17083 -1.62287 0
M  V30 3273 O 315.803 4.97419 -2.26355 0
M  V30 3274 H 312.897 0.766756 -0.309862 0
M  V30 3275 H 315.443 1.13514 -1.26145 0
M  V30 3276 H 314.215 2.85494 -2.67598 0
M  V30 3277 H 313.838 3.7803 -1.23203 0
M  V30 3278 N 314.835 0.952656 1.25548 0
M  V30 3279 C 316.065 0.622592 1.96996 0
M  V30 3280 C 316.473 -0.809112 1.71026 0
M  V30 3281 O 315.816 -1.55258 0.981861 0
M  V30 3282 C 315.878 0.798946 3.5051 0
M  V30 3283 C 315.542 2.20744 4.00151 0
M  V30 3284 C 316.539 3.18394 4.11001 0
M  V30 3285 C 314.224 2.5311 4.33867 0
M  V30 3286 C 316.218 4.46504 4.54877 0
M  V30 3287 C 313.905 3.8145 4.7743 0
M  V30 3288 C 314.903 4.77959 4.87897 0
M  V30 3289 O 314.591 6.04012 5.30494 0
M  V30 3290 H 314.323 0.232503 0.634758 0
M  V30 3291 H 316.877 1.2789 1.60728 0
M  V30 3292 H 315.107 0.0854903 3.86605 0
M  V30 3293 H 316.796 0.47023 4.03167 0
M  V30 3294 H 317.562 2.94715 3.85186 0
M  V30 3295 H 313.441 1.78719 4.24948 0
M  V30 3296 H 316.985 5.21835 4.62962 0
M  V30 3297 H 312.882 4.04936 5.0269 0
M  V30 3298 H 313.65 6.0736 5.48685 0
M  V30 3299 N 316.313 -1.40141 0.720998 0
M  V30 3300 C 317.26 -2.30688 0.071919 0
M  V30 3301 C 318.23 -1.48476 -0.744584 0
M  V30 3302 O 319.415 -1.77201 -0.707423 0
M  V30 3303 C 316.555 -3.34724 -0.839855 0
M  V30 3304 C 315.668 -4.31998 -0.0122438 0
M  V30 3305 C 314.803 -5.23102 -0.923995 0
M  V30 3306 C 313.842 -6.12033 -0.0907969 0
M  V30 3307 N 312.979 -6.95537 -0.957718 0
M  V30 3308 H 317.819 -2.85628 0.849755 0
M  V30 3309 H 315.356 -1.40653 0.430726 0
M  V30 3310 H 317.314 -3.93618 -1.38279 0
M  V30 3311 H 315.944 -2.81274 -1.58381 0
M  V30 3312 H 314.996 -3.74841 0.64794 0
M  V30 3313 H 316.308 -4.94772 0.632595 0
M  V30 3314 H 315.462 -5.86953 -1.53527 0
M  V30 3315 H 314.201 -4.60615 -1.60264 0
M  V30 3316 H 313.206 -5.47207 0.533377 0
M  V30 3317 H 314.431 -6.76581 0.584428 0
M  V30 3318 H 312.377 -6.35633 -1.62192 0
M  V30 3319 H 312.294 -7.55099 -0.36904 0
M  V30 3320 H 313.562 -7.63832 -1.555 0
M  V30 3321 N 317.792 -0.46758 -1.50504 0
M  V30 3322 C 319.017 0.0886943 -2.0721 0
M  V30 3323 C 319.442 1.33057 -1.32956 0
M  V30 3324 O 318.8 1.77354 -0.376197 0
M  V30 3325 C 318.848 0.359202 -3.58806 0
M  V30 3326 O 317.952 1.44034 -3.8643 0
M  V30 3327 H 317.293 -0.0114349 -0.663902 0
M  V30 3328 H 319.823 -0.657613 -1.93744 0
M  V30 3329 H 319.833 0.600742 -4.03553 0
M  V30 3330 H 318.508 -0.548311 -4.1227 0
M  V30 3331 H 317.085 1.18638 -3.53524 0
M  V30 3332 N 319.27 1.56325 -0.20005 0
M  V30 3333 C 320.519 1.96895 0.437652 0
M  V30 3334 C 320.832 1.08999 1.62415 0
M  V30 3335 O 322.038 1.39372 2.32997 0
M  V30 3336 C 320.494 3.50198 0.830025 0
M  V30 3337 C 320.102 4.46765 -0.332461 0
M  V30 3338 C 321.846 3.99526 1.43453 0
M  V30 3339 C 319.753 5.91344 0.0811468 0
M  V30 3340 H 318.683 0.735209 0.167282 0
M  V30 3341 H 321.334 1.81148 -0.292853 0
M  V30 3342 H 319.716 3.61467 1.61734 0
M  V30 3343 H 320.89 4.47231 -1.11 0
M  V30 3344 H 319.205 4.07657 -0.848789 0
M  V30 3345 H 321.802 5.05025 1.75652 0
M  V30 3346 H 322.145 3.44122 2.34277 0
M  V30 3347 H 322.678 3.91393 0.71109 0
M  V30 3348 H 319.417 6.50685 -0.793033 0
M  V30 3349 H 318.937 5.94121 0.823445 0
M  V30 3350 H 320.616 6.44945 0.515252 0
M  V30 3351 N 320.748 -0.0735177 1.57428 0
M  V30 3352 C 321.995 -0.772999 1.87166 0
M  V30 3353 C 322.323 -1.77665 0.791551 0
M  V30 3354 O 321.578 -1.94541 -0.212636 0
M  V30 3355 C 321.877 -1.51799 3.23561 0
M  V30 3356 C 321.543 -0.654484 4.46125 0
M  V30 3357 C 320.205 -0.416511 4.79394 0
M  V30 3358 C 322.557 -0.0555862 5.2117 0
M  V30 3359 C 319.885 0.429869 5.85123 0
M  V30 3360 C 322.237 0.778239 6.27795 0
M  V30 3361 C 320.901 1.0261 6.59566 0
M  V30 3362 H 320.171 -0.282861 0.684888 0
M  V30 3363 H 322.818 -0.0338272 1.9147 0
M  V30 3364 H 321.123 -2.32932 3.1504 0
M  V30 3365 H 322.82 -2.06397 3.43804 0
M  V30 3366 H 319.41 -0.850091 4.20085 0
M  V30 3367 H 323.594 -0.226558 4.95783 0
M  V30 3368 H 318.85 0.630665 6.08139 0
M  V30 3369 H 323.024 1.24906 6.85107 0
M  V30 3370 H 320.651 1.68371 7.4132 0
M  V30 3371 N 322.226 -1.5378 -0.344866 0
M  V30 3372 C 323.503 -1.61589 -1.10219 0
M  V30 3373 C 323.883 -0.436316 -2.06542 0
M  V30 3374 O 323.231 0.571543 -2.21237 0
M  V30 3375 C 323.441 -2.97602 -1.82301 0
M  V30 3376 C 324.789 -3.5291 -2.36093 0
M  V30 3377 O 325.813 -2.99768 -1.924 0
M  V30 3378 O 324.672 -4.45859 -3.16026 0
M  V30 3379 H 321.766 -0.653522 -0.506792 0
M  V30 3380 H 324.312 -1.66126 -0.346465 0
M  V30 3381 H 323.084 -3.74893 -1.12121 0
M  V30 3382 H 322.707 -2.9665 -2.64735 0
M  V30 3383 N 323.704 0.605807 -1.45491 0
M  V30 3384 C 324.952 1.36207 -1.49305 0
M  V30 3385 C 325.273 1.94519 -0.136863 0
M  V30 3386 O 324.543 1.77261 0.833983 0
M  V30 3387 H 323.123 0.50565 -0.549843 0
M  V30 3388 H 325.785 0.711239 -1.81459 0
M  V30 3389 H 324.881 2.18058 -2.23287 0
M  V30 3390 N 325.182 1.32811 0.848464 0
M  V30 3391 C 326.459 1.14334 1.58704 0
M  V30 3392 C 326.839 -0.293948 2.09043 0
M  V30 3393 O 326.187 -1.29153 1.88499 0
M  V30 3394 C 326.397 2.17626 2.72837 0
M  V30 3395 C 327.745 2.51282 3.42261 0
M  V30 3396 O 328.769 2.16219 2.83068 0
M  V30 3397 O 327.628 3.11413 4.49093 0
M  V30 3398 H 324.722 0.441601 0.699226 0
M  V30 3399 H 327.268 1.44362 0.892053 0
M  V30 3400 H 326.04 3.14211 2.3321 0
M  V30 3401 H 325.663 1.88628 3.50008 0
M  V30 3402 N 326.66 -1.06551 1.16123 0
M  V30 3403 C 327.908 -1.78947 0.939267 0
M  V30 3404 C 328.229 -1.87532 -0.534476 0
M  V30 3405 O 327.499 -1.38211 -1.38833 0
M  V30 3406 H 326.079 -0.662807 0.344523 0
M  V30 3407 H 328.741 -1.28725 1.46342 0
M  V30 3408 H 327.837 -2.81117 1.35572 0
M  V30 3409 N 328.138 -0.959301 -1.25041 0
M  V30 3410 C 329.085 -0.482057 -2.2571 0
M  V30 3411 C 330.055 0.467939 -1.59372 0
M  V30 3412 O 331.24 0.380159 -1.86974 0
M  V30 3413 C 328.38 0.229623 -3.44335 0
M  V30 3414 C 327.493 -0.758156 -4.25295 0
M  V30 3415 C 326.628 -0.0234403 -5.31195 0
M  V30 3416 C 325.667 -1.00184 -6.03846 0
M  V30 3417 N 324.804 -0.29769 -7.01469 0
M  V30 3418 H 329.644 -1.34538 -2.65901 0
M  V30 3419 H 327.181 -0.674592 -1.3072 0
M  V30 3420 H 329.139 0.658856 -4.11965 0
M  V30 3421 H 327.769 1.05696 -3.05005 0
M  V30 3422 H 326.821 -1.30586 -3.57284 0
M  V30 3423 H 328.133 -1.50458 -4.75567 0
M  V30 3424 H 327.287 0.464201 -6.04922 0
M  V30 3425 H 326.026 0.755741 -4.81809 0
M  V30 3426 H 325.031 -1.50044 -5.2893 0
M  V30 3427 H 326.256 -1.78133 -6.55321 0
M  V30 3428 H 324.202 0.462668 -6.54366 0
M  V30 3429 H 324.119 -0.983128 -7.4958 0
M  V30 3430 H 325.387 0.16826 -7.79318 0
M  V30 3431 N 329.616 1.39756 -0.72842 0
M  V30 3432 C 330.844 2.04948 -0.283528 0
M  V30 3433 C 331.259 1.54908 1.0793 0
M  V30 3434 O 330.616 0.711135 1.68075 0
M  V30 3435 C 330.667 3.60498 -0.268957 0
M  V30 3436 O 330.388 4.08695 -1.57798 0
M  V30 3437 C 331.889 4.4288 0.192912 0
M  V30 3438 H 329.109 0.659243 -0.125056 0
M  V30 3439 H 331.653 1.78927 -0.990226 0
M  V30 3440 H 329.808 3.85444 0.388801 0
M  V30 3441 H 330.222 5.02977 -1.48709 0
M  V30 3442 H 331.696 5.51791 0.151952 0
M  V30 3443 H 332.173 4.21418 1.23708 0
M  V30 3444 H 332.779 4.23069 -0.435039 0
M  V30 3445 N 331.094 0.475555 1.50254 0
M  V30 3446 C 332.324 -0.0753399 2.06463 0
M  V30 3447 C 332.732 -1.33661 1.33908 0
M  V30 3448 O 332.075 -1.79219 0.403257 0
M  V30 3449 C 332.137 -0.424921 3.5698 0
M  V30 3450 C 331.801 0.734965 4.51051 0
M  V30 3451 C 332.798 1.61827 4.94073 0
M  V30 3452 C 330.483 0.926557 4.9368 0
M  V30 3453 C 332.477 2.67754 5.78434 0
M  V30 3454 C 330.164 1.98904 5.77824 0
M  V30 3455 C 331.162 2.8629 6.20103 0
M  V30 3456 O 330.85 3.90708 7.02568 0
M  V30 3457 H 330.582 0.00576308 0.675975 0
M  V30 3458 H 333.136 0.664662 1.94349 0
M  V30 3459 H 331.366 -1.21817 3.67012 0
M  V30 3460 H 333.055 -0.911422 3.95535 0
M  V30 3461 H 333.821 1.48196 4.61804 0
M  V30 3462 H 329.7 0.25584 4.6029 0
M  V30 3463 H 333.244 3.35992 6.11355 0
M  V30 3464 H 329.141 2.12541 6.09505 0
M  V30 3465 H 329.909 3.87751 7.20827 0
M  V30 3466 N 332.573 -1.56217 0.208337 0
M  V30 3467 C 333.505 -2.1695 -0.739276 0
M  V30 3468 C 334.518 -1.13492 -1.1672 0
M  V30 3469 O 335.707 -1.40529 -1.10063 0
M  V30 3470 C 332.807 -2.72755 -2.01142 0
M  V30 3471 C 331.98 -4.0125 -1.74118 0
M  V30 3472 C 331.039 -4.41749 -2.85909 0
M  V30 3473 O 330.065 -5.08912 -2.54946 0
M  V30 3474 N 331.267 -4.06342 -4.14568 0
M  V30 3475 H 334.032 -2.98893 -0.219837 0
M  V30 3476 H 331.593 -1.61878 0.0268445 0
M  V30 3477 H 333.585 -2.96826 -2.75094 0
M  V30 3478 H 332.155 -1.95191 -2.4417 0
M  V30 3479 H 331.375 -3.85173 -0.838775 0
M  V30 3480 H 332.663 -4.851 -1.53477 0
M  V30 3481 H 332.061 -3.52345 -4.42571 0
M  V30 3482 H 330.618 -4.35335 -4.85105 0
M  V30 3483 N 334.051 0.0651679 -1.57465 0
M  V30 3484 C 334.999 1.09542 -2.05191 0
M  V30 3485 C 335.993 1.39675 -0.958509 0
M  V30 3486 O 337.199 1.39003 -1.14359 0
M  V30 3487 H 333.574 0.370623 -0.654326 0
M  V30 3488 H 335.545 0.666802 -2.90854 0
M  V30 3489 C 334.294 2.39881 -2.51699 0
M  V30 3490 H 333.617 2.17547 -3.3543 0
M  V30 3491 H 335.057 3.104 -2.88839 0
M  V30 3492 C 333.516 3.0631 -1.40271 0
M  V30 3493 O 334.046 3.94664 -0.748523 0
M  V30 3494 N 332.252 2.67041 -1.14618 0
M  V30 3495 H 331.799 1.95281 -1.67997 0
M  V30 3496 H 331.757 3.1181 -0.402688 0
M  V30 3497 N 335.529 1.53961 0.336706 0
M  V30 3498 C 336.775 1.7179 1.07777 0
M  V30 3499 C 337.108 0.483263 1.88091 0
M  V30 3500 O 336.383 -0.519747 1.87427 0
M  V30 3501 C 336.666 2.98558 2.01334 0
M  V30 3502 C 336.519 4.32245 1.24437 0
M  V30 3503 C 337.838 3.21023 3.01052 0
M  V30 3504 H 334.957 0.625089 0.390426 0
M  V30 3505 H 337.599 1.86641 0.35567 0
M  V30 3506 H 335.749 2.86028 2.62908 0
M  V30 3507 H 337.421 4.56637 0.654243 0
M  V30 3508 H 335.664 4.30344 0.546458 0
M  V30 3509 H 336.335 5.17137 1.93063 0
M  V30 3510 H 338.811 3.32929 2.49595 0
M  V30 3511 H 337.687 4.11104 3.6371 0
M  V30 3512 H 337.948 2.37637 3.72802 0
M  V30 3513 N 337.007 -0.598083 1.45811 0
M  V30 3514 C 337.939 -1.72231 1.51225 0
M  V30 3515 C 338.952 -1.57757 0.402059 0
M  V30 3516 O 340.141 -1.65464 0.669624 0
M  V30 3517 C 337.241 -3.10331 1.3619 0
M  V30 3518 C 336.414 -3.50955 2.61054 0
M  V30 3519 C 335.473 -4.68055 2.40439 0
M  V30 3520 O 334.499 -4.74691 3.14097 0
M  V30 3521 N 335.701 -5.61941 1.45612 0
M  V30 3522 H 338.466 -1.68046 2.48154 0
M  V30 3523 H 336.027 -0.783637 1.41671 0
M  V30 3524 H 338.019 -3.86439 1.20195 0
M  V30 3525 H 336.589 -3.0897 0.475015 0
M  V30 3526 H 335.809 -2.64711 2.92099 0
M  V30 3527 H 337.097 -3.74858 3.44034 0
M  V30 3528 H 336.495 -5.59301 0.848431 0
M  V30 3529 H 335.052 -6.37542 1.35585 0
M  V30 3530 N 338.485 -1.33259 -0.841409 0
M  V30 3531 C 339.417 -1.19136 -1.95804 0
M  V30 3532 C 340.43 -0.122965 -1.62335 0
M  V30 3533 O 341.619 -0.373154 -1.74556 0
M  V30 3534 C 338.719 -0.804268 -3.29218 0
M  V30 3535 C 337.892 -1.96376 -3.90839 0
M  V30 3536 C 336.951 -1.55806 -5.02604 0
M  V30 3537 O 335.977 -2.27203 -5.21888 0
M  V30 3538 N 337.179 -0.461609 -5.78662 0
M  V30 3539 H 339.944 -2.15326 -2.08458 0
M  V30 3540 H 337.505 -1.25971 -1.017 0
M  V30 3541 H 339.497 -0.51501 -4.0141 0
M  V30 3542 H 338.067 0.0668809 -3.12528 0
M  V30 3543 H 337.287 -2.41879 -3.11269 0
M  V30 3544 H 338.575 -2.73966 -4.28742 0
M  V30 3545 H 337.973 0.132343 -5.65545 0
M  V30 3546 H 336.53 -0.232013 -6.51387 0
M  V30 3547 N 339.963 1.05934 -1.16686 0
M  V30 3548 C 341.21 1.788 -0.950622 0
M  V30 3549 C 341.538 1.87384 0.521305 0
M  V30 3550 O 340.793 1.36438 1.40297 0
M  V30 3551 C 341.092 3.23105 -1.52767 0
M  V30 3552 C 340.758 3.34594 -3.02254 0
M  V30 3553 C 339.42 3.37437 -3.43059 0
M  V30 3554 C 341.772 3.36219 -3.98254 0
M  V30 3555 C 339.1 3.39525 -4.78477 0
M  V30 3556 C 341.452 3.39845 -5.33562 0
M  V30 3557 C 340.116 3.40971 -5.73842 0
M  V30 3558 H 339.386 0.654275 -0.347857 0
M  V30 3559 H 342.033 1.24555 -1.45459 0
M  V30 3560 H 340.338 3.80227 -0.94524 0
M  V30 3561 H 342.035 3.7809 -1.336 0
M  V30 3562 H 338.625 3.3309 -2.6972 0
M  V30 3563 H 342.809 3.33231 -3.67792 0
M  V30 3564 H 338.065 3.38703 -5.09009 0
M  V30 3565 H 342.239 3.4005 -6.07733 0
M  V30 3566 H 339.866 3.42342 -6.78753 0
M  V30 3567 N 341.441 0.965919 1.2453 0
M  V30 3568 C 342.69 0.622437 1.91856 0
M  V30 3569 C 343.003 -0.846006 1.76358 0
M  V30 3570 O 344.209 -1.29993 2.38357 0
M  V30 3571 C 342.665 1.0626 3.43856 0
M  V30 3572 C 342.273 2.55437 3.68043 0
M  V30 3573 C 344.017 0.792183 4.17043 0
M  V30 3574 C 341.924 2.93196 5.13605 0
M  V30 3575 H 340.854 0.229092 0.718354 0
M  V30 3576 H 343.505 1.17189 1.41206 0
M  V30 3577 H 341.887 0.441476 3.93531 0
M  V30 3578 H 343.061 3.22665 3.28974 0
M  V30 3579 H 341.376 2.8007 3.08139 0
M  V30 3580 H 343.973 1.05031 5.24283 0
M  V30 3581 H 344.316 -0.271584 4.15413 0
M  V30 3582 H 344.849 1.37419 3.73311 0
M  V30 3583 H 341.588 3.98636 5.20355 0
M  V30 3584 H 341.108 2.30651 5.53679 0
M  V30 3585 H 342.787 2.83004 5.81823 0
M  V30 3586 N 342.919 -1.39368 0.735821 0
M  V30 3587 C 344.196 -1.94465 0.210395 0
M  V30 3588 C 344.576 -1.67254 -1.28799 0
M  V30 3589 O 343.924 -1.00123 -2.05396 0
M  V30 3590 C 344.134 -3.4472 0.544897 0
M  V30 3591 C 345.482 -4.21708 0.494689 0
M  V30 3592 O 346.506 -3.52922 0.482136 0
M  V30 3593 O 345.365 -5.44299 0.489947 0
M  V30 3594 H 342.459 -0.826096 0.0386666 0
M  V30 3595 H 345.005 -1.48863 0.814735 0
M  V30 3596 H 343.777 -3.57963 1.58045 0
M  V30 3597 H 343.4 -3.97502 -0.08837 0
M  V30 3598 N 344.397 -0.483516 -1.5 0
M  V30 3599 C 345.307 0.309172 -2.32554 0
M  V30 3600 C 346.323 0.984159 -1.43493 0
M  V30 3601 O 347.499 0.969399 -1.76535 0
M  V30 3602 C 344.564 1.36979 -3.18493 0
M  V30 3603 C 343.625 0.710095 -4.23387 0
M  V30 3604 C 342.858 1.72018 -5.05218 0
M  V30 3605 O 343.081 2.94813 -4.88305 0
M  V30 3606 O 342.015 1.28515 -5.8802 0
M  V30 3607 H 345.841 -0.366064 -3.01486 0
M  V30 3608 H 343.426 -0.24514 -1.47375 0
M  V30 3609 H 345.308 1.98385 -3.71781 0
M  V30 3610 H 343.983 2.02828 -2.52275 0
M  V30 3611 H 342.89 0.0567539 -3.74057 0
M  V30 3612 H 344.223 0.0943557 -4.9211 0
M  V30 3613 N 345.875 1.56104 -0.216619 0
M  V30 3614 C 347.123 1.97781 0.415593 0
M  V30 3615 C 347.444 1.10536 1.60645 0
M  V30 3616 O 346.714 0.181303 1.95059 0
M  V30 3617 H 345.294 0.730415 0.156534 0
M  V30 3618 H 347.956 1.92445 -0.308366 0
M  V30 3619 H 347.052 3.03072 0.74525 0
M  V30 3620 N 347.353 -0.0568162 1.57498 0
M  V30 3621 C 348.301 -1.08452 2.05769 0
M  V30 3622 C 349.295 -1.39164 0.965903 0
M  V30 3623 O 350.501 -1.38395 1.15095 0
M  V30 3624 H 346.876 -0.367148 0.656282 0
M  V30 3625 H 348.847 -0.651368 2.91204 0
M  V30 3626 C 347.596 -2.38543 2.52968 0
M  V30 3627 H 346.919 -2.15765 3.36579 0
M  V30 3628 H 348.359 -3.08863 2.90481 0
M  V30 3629 C 346.818 -3.05562 1.41893 0
M  V30 3630 O 347.348 -3.94262 0.769442 0
M  V30 3631 N 345.554 -2.6643 1.16032 0
M  V30 3632 H 345.101 -1.94387 1.6903 0
M  V30 3633 H 345.059 -3.11593 0.419219 0
M  V30 3634 N 348.832 -1.54138 -0.328536 0
M  V30 3635 C 350.062 -1.75807 -1.08516 0
M  V30 3636 C 350.47 -0.50428 -1.82356 0
M  V30 3637 O 349.813 0.534451 -1.75754 0
M  V30 3638 C 349.875 -2.89423 -2.13248 0
M  V30 3639 C 349.539 -4.28504 -1.5885 0
M  V30 3640 C 350.536 -5.09536 -1.03289 0
M  V30 3641 C 348.221 -4.75034 -1.63243 0
M  V30 3642 C 350.215 -6.35206 -0.52845 0
M  V30 3643 C 347.902 -6.00672 -1.12411 0
M  V30 3644 C 348.9 -6.80592 -0.573062 0
M  V30 3645 O 348.588 -8.03867 -0.0723692 0
M  V30 3646 H 348.32 -0.590633 -0.328829 0
M  V30 3647 H 350.874 -2.01819 -0.381868 0
M  V30 3648 H 349.104 -2.5897 -2.87178 0
M  V30 3649 H 350.793 -2.98921 -2.74592 0
M  V30 3650 H 351.559 -4.74745 -0.99206 0
M  V30 3651 H 347.438 -4.12875 -2.05074 0
M  V30 3652 H 350.982 -6.97532 -0.0976774 0
M  V30 3653 H 346.879 -6.34955 -1.162 0
M  V30 3654 H 347.647 -8.18283 -0.188258 0
M  V30 3655 N 350.31 0.590341 -1.46126 0
M  V30 3656 C 351.535 1.37991 -1.54833 0
M  V30 3657 C 351.96 1.87163 -0.187506 0
M  V30 3658 O 351.318 1.61133 0.831008 0
M  V30 3659 C 351.366 2.54867 -2.55098 0
M  V30 3660 O 350.47 3.56061 -2.08073 0
M  V30 3661 H 349.811 0.411265 -0.521303 0
M  V30 3662 H 352.341 0.716819 -1.91632 0
M  V30 3663 H 352.351 3.01886 -2.74461 0
M  V30 3664 H 351.026 2.18429 -3.53923 0
M  V30 3665 H 349.603 3.15574 -1.98664 0
M  V30 3666 N 351.788 1.33704 0.83433 0
M  V30 3667 C 353.013 1.28615 1.62705 0
M  V30 3668 C 353.438 -0.139242 1.87584 0
M  V30 3669 O 352.796 -1.09734 1.4432 0
M  V30 3670 C 352.844 2.07139 2.95171 0
M  V30 3671 O 351.948 1.4331 3.86699 0
M  V30 3672 H 351.289 0.44226 0.49528 0
M  V30 3673 H 353.819 1.76335 1.03766 0
M  V30 3674 H 353.829 2.18073 3.44831 0
M  V30 3675 H 352.504 3.10779 2.76386 0
M  V30 3676 H 351.081 1.4105 3.45195 0
M  V30 3677 N 353.266 -1.05314 1.17247 0
M  V30 3678 C 354.514 -1.77941 0.958194 0
M  V30 3679 C 354.835 -1.88089 -0.514556 0
M  V30 3680 O 354.105 -1.39676 -1.37359 0
M  V30 3681 H 352.685 -0.659116 0.351533 0
M  V30 3682 H 355.347 -1.27166 1.47699 0
M  V30 3683 H 354.443 -2.79663 1.38546 0
M  V30 3684 N 354.744 -0.972509 -1.24016 0
M  V30 3685 C 356.021 -0.553733 -1.87598 0
M  V30 3686 C 356.401 0.969158 -1.87538 0
M  V30 3687 O 355.749 1.84255 -1.35139 0
M  V30 3688 C 355.959 -1.15076 -3.29482 0
M  V30 3689 C 357.307 -1.23862 -4.06132 0
M  V30 3690 O 358.331 -1.10363 -3.38672 0
M  V30 3691 O 357.19 -1.45252 -5.26844 0
M  V30 3692 H 354.284 -0.185331 -0.805966 0
M  V30 3693 H 356.83 -1.06709 -1.31952 0
M  V30 3694 H 355.602 -2.19333 -3.2405 0
M  V30 3695 H 355.225 -0.621746 -3.92709 0
M  V30 3696 N 356.222 1.38976 -0.743202 0
M  V30 3697 C 357.17 2.32394 -0.0978389 0
M  V30 3698 C 358.164 1.53486 0.716824 0
M  V30 3699 O 359.37 1.69092 0.617088 0
M  V30 3700 H 355.745 0.75189 -0.0128402 0
M  V30 3701 H 357.716 2.84441 -0.901981 0
M  V30 3702 C 356.465 3.38629 0.789036 0
M  V30 3703 H 355.788 3.99432 0.171559 0
M  V30 3704 H 357.228 4.06426 1.20807 0
M  V30 3705 C 355.687 2.76347 1.92702 0
M  V30 3706 O 356.217 2.64836 3.02034 0
M  V30 3707 N 354.423 2.34311 1.71891 0
M  V30 3708 H 353.97 2.43873 0.829675 0
M  V30 3709 H 353.928 1.9298 2.48205 0
M  V30 3710 N 357.7 0.491464 1.49741 0
M  V30 3711 C 358.65 -0.311086 2.25868 0
M  V30 3712 C 359.634 -0.943857 1.30308 0
M  V30 3713 O 360.826 -0.853035 1.55088 0
M  V30 3714 C 357.955 -1.38059 3.14316 0
M  V30 3715 C 357.041 -0.754541 4.17334 0
M  V30 3716 N 357.432 0.137216 5.05614 0
M  V30 3717 C 355.73 -1.01621 4.34269 0
M  V30 3718 C 356.431 0.494614 5.79593 0
M  V30 3719 N 355.407 -0.135169 5.43432 0
M  V30 3720 H 359.209 0.37555 2.91491 0
M  V30 3721 H 356.723 0.306917 1.59473 0
M  V30 3722 H 358.72 -1.96891 3.67477 0
M  V30 3723 H 357.38 -2.06901 2.50244 0
M  V30 3724 H 358.391 0.50741 5.15408 0
M  V30 3725 H 355.068 -1.69808 3.81407 0
M  V30 3726 H 356.458 1.2236 6.60665 0
M  V30 3727 N 359.178 -1.55987 0.224894 0
M  V30 3728 C 360.406 -2.02784 -0.410665 0
M  V30 3729 C 360.821 -1.10464 -1.53112 0
M  V30 3730 O 360.178 -0.114871 -1.82138 0
M  V30 3731 C 360.229 -3.49087 -0.939165 0
M  V30 3732 O 359.95 -4.37887 0.136614 0
M  V30 3733 C 361.451 -4.11543 -1.64763 0
M  V30 3734 H 358.671 -0.663484 -0.100148 0
M  V30 3735 H 361.215 -2.01614 0.342326 0
M  V30 3736 H 359.37 -3.50861 -1.64242 0
M  V30 3737 H 359.784 -5.23849 -0.261155 0
M  V30 3738 H 361.258 -5.15673 -1.96939 0
M  V30 3739 H 361.735 -3.56736 -2.56195 0
M  V30 3740 H 362.341 -4.13629 -0.989503 0
M  V30 3741 N 360.656 0.0484629 -1.57525 0
M  V30 3742 C 361.586 1.0549 -2.08313 0
M  V30 3743 C 362.567 1.38929 -0.981463 0
M  V30 3744 O 363.752 1.48151 -1.25558 0
M  V30 3745 C 360.882 2.36162 -2.54646 0
M  V30 3746 C 359.836 2.17016 -3.68901 0
M  V30 3747 C 359.162 3.53278 -4.01371 0
M  V30 3748 C 360.462 1.57219 -4.98076 0
M  V30 3749 H 362.156 0.632195 -2.92649 0
M  V30 3750 H 359.702 0.302654 -1.40784 0
M  V30 3751 H 361.655 3.06882 -2.88793 0
M  V30 3752 H 360.379 2.80456 -1.67368 0
M  V30 3753 H 359.038 1.48733 -3.35073 0
M  V30 3754 H 358.686 3.95185 -3.11188 0
M  V30 3755 H 358.386 3.41299 -4.78318 0
M  V30 3756 H 359.91 4.25391 -4.38035 0
M  V30 3757 H 361.324 2.17832 -5.30304 0
M  V30 3758 H 359.721 1.55871 -5.79503 0
M  V30 3759 H 360.791 0.535956 -4.81929 0
M  V30 3760 N 362.134 1.5431 0.320358 0
M  V30 3761 C 363.55 1.45091 0.664889 0
M  V30 3762 C 363.75 0.626382 1.91517 0
M  V30 3763 O 362.806 0.126443 2.52183 0
M  V30 3764 C 364.119 2.88848 0.83591 0
M  V30 3765 C 365.667 2.9877 0.933046 0
M  V30 3766 C 366.142 4.43683 1.13621 0
M  V30 3767 N 367.633 4.47309 1.20287 0
M  V30 3768 C 368.368 5.56595 1.37801 0
M  V30 3769 N 367.864 6.75844 1.52338 0
M  V30 3770 N 369.657 5.44248 1.40535 0
M  V30 3771 H 361.808 2.06398 -0.501374 0
M  V30 3772 H 364.071 0.933963 -0.162534 0
M  V30 3773 H 363.777 3.51698 -0.0116092 0
M  V30 3774 H 363.651 3.35148 1.73078 0
M  V30 3775 H 366.038 2.36045 1.77107 0
M  V30 3776 H 366.119 2.55796 0.0145782 0
M  V30 3777 H 365.763 5.06995 0.303032 0
M  V30 3778 H 365.693 4.84269 2.0686 0
M  V30 3779 H 368.184 3.61388 1.10485 0
M  V30 3780 H 368.497 7.54892 1.65403 0
M  V30 3781 H 366.842 6.78746 1.4943 0
M  V30 3782 H 370.033 4.50038 1.28777 0
M  V30 3783 H 370.206 6.29473 1.53842 0
M  V30 3784 N 363.613 -0.582584 1.46437 0
M  V30 3785 C 364.89 -1.34276 1.4223 0
M  V30 3786 C 365.27 -2.10835 0.10583 0
M  V30 3787 O 364.618 -2.09485 -0.912596 0
M  V30 3788 C 364.828 -2.26865 2.65204 0
M  V30 3789 C 366.176 -2.88691 3.11356 0
M  V30 3790 O 367.2 -2.37178 2.65753 0
M  V30 3791 O 366.059 -3.82255 3.90568 0
M  V30 3792 H 363.153 -0.603326 0.565621 0
M  V30 3793 H 365.699 -0.603591 1.58603 0
M  V30 3794 H 364.471 -1.69724 3.52576 0
M  V30 3795 H 364.094 -3.08122 2.5129 0
M  V30 3796 N 365.091 -1.34144 -0.827227 0
M  V30 3797 C 366.502 -1.23557 -1.39966 0
M  V30 3798 C 366.853 0.140731 -1.95695 0
M  V30 3799 O 365.978 1.04087 -1.89723 0
M  V30 3800 C 366.573 -2.23708 -2.54441 0
M  V30 3801 C 365.132 -2.16924 -3.07605 0
M  V30 3802 C 364.279 -2.10549 -1.80456 0
M  V30 3803 H 367.23 -1.45573 -0.631991 0
M  V30 3804 H 367.251 -1.85157 -3.32411 0
M  V30 3805 H 366.763 -3.23866 -2.13851 0
M  V30 3806 H 364.864 -1.20107 -3.52711 0
M  V30 3807 H 364.977 -3.07988 -3.66988 0
M  V30 3808 H 363.341 -1.56203 -2.01178 0
M  V30 3809 H 364.124 -3.12535 -1.42046 0
M  V30 3810 N 366.569 1.04691 -1.17803 0
M  V30 3811 C 367.519 2.10856 -0.867391 0
M  V30 3812 C 368.503 1.601 0.160206 0
M  V30 3813 O 369.695 1.76948 -0.042947 0
M  V30 3814 C 366.824 3.411 -0.388012 0
M  V30 3815 C 365.91 3.9864 -1.44732 0
M  V30 3816 N 366.301 4.30075 -2.66212 0
M  V30 3817 C 364.599 4.26439 -1.30637 0
M  V30 3818 C 365.3 4.76033 -3.34317 0
M  V30 3819 N 364.276 4.76462 -2.61696 0
M  V30 3820 H 368.078 2.33029 -1.79094 0
M  V30 3821 H 365.592 1.22386 -1.0675 0
M  V30 3822 H 367.589 4.16641 -0.146994 0
M  V30 3823 H 366.249 3.20357 0.529271 0
M  V30 3824 H 367.26 4.19917 -3.03134 0
M  V30 3825 H 363.937 4.15056 -0.451129 0
M  V30 3826 H 365.327 5.09427 -4.38103 0
M  V30 3827 N 368.047 0.979072 1.23499 0
M  V30 3828 C 369.277 0.664237 1.95631 0
M  V30 3829 C 369.685 -0.772653 1.72704 0
M  V30 3830 O 369.028 -1.53141 1.01457 0
M  V30 3831 C 369.09 0.873115 3.48736 0
M  V30 3832 C 368.754 2.29182 3.95379 0
M  V30 3833 C 369.751 3.2704 4.04155 0
M  V30 3834 C 367.436 2.62256 4.28401 0
M  V30 3835 C 369.43 4.56052 4.45304 0
M  V30 3836 C 367.117 3.91491 4.69231 0
M  V30 3837 C 368.115 4.88201 4.77649 0
M  V30 3838 O 367.803 6.15129 5.17563 0
M  V30 3839 H 367.535 0.245915 0.629684 0
M  V30 3840 H 370.089 1.3127 1.57979 0
M  V30 3841 H 368.319 0.167476 3.86337 0
M  V30 3842 H 370.008 0.555642 4.02079 0
M  V30 3843 H 370.774 3.02819 3.78848 0
M  V30 3844 H 366.653 1.87692 4.21061 0
M  V30 3845 H 370.197 5.31538 4.51789 0
M  V30 3846 H 366.094 4.15508 4.93987 0
M  V30 3847 H 366.862 6.18862 5.35679 0
M  V30 3848 N 369.525 -1.3858 0.750561 0
M  V30 3849 C 370.771 -2.00481 0.305825 0
M  V30 3850 C 371.104 -1.5944 -1.10872 0
M  V30 3851 O 370.379 -0.83052 -1.75877 0
M  V30 3852 C 370.662 -3.5758 0.425287 0
M  V30 3853 C 370.515 -4.08594 1.88072 0
M  V30 3854 C 371.834 -4.39719 -0.183122 0
M  V30 3855 H 368.953 -0.728348 0.112598 0
M  V30 3856 H 371.595 -1.64566 0.949638 0
M  V30 3857 H 369.745 -3.88306 -0.122828 0
M  V30 3858 H 371.417 -3.88523 2.48691 0
M  V30 3859 H 369.66 -3.61574 2.39681 0
M  V30 3860 H 370.331 -5.177 1.91548 0
M  V30 3861 H 372.807 -4.15128 0.284303 0
M  V30 3862 H 371.683 -5.48856 -0.0692757 0
M  V30 3863 H 371.944 -4.23434 -1.27106 0
M  V30 3864 N 371.003 -0.499398 -1.49478 0
M  V30 3865 C 371.913 0.284489 -2.32869 0
M  V30 3866 C 372.929 0.968885 -1.44529 0
M  V30 3867 O 374.105 0.95062 -1.77553 0
M  V30 3868 C 371.17 1.33594 -3.19928 0
M  V30 3869 C 370.231 0.665149 -4.24116 0
M  V30 3870 C 369.464 1.6665 -5.07014 0
M  V30 3871 O 369.687 2.89618 -4.91404 0
M  V30 3872 O 368.621 1.22271 -5.8935 0
M  V30 3873 H 372.447 -0.39802 -3.01081 0
M  V30 3874 H 370.032 -0.260758 -1.47107 0
M  V30 3875 H 371.914 1.94431 -3.73864 0
M  V30 3876 H 370.589 2.0014 -2.54412 0
M  V30 3877 H 369.496 0.0170769 -3.74096 0
M  V30 3878 H 370.829 0.0421555 -4.92182 0
M  V30 3879 N 372.481 1.55866 -0.233164 0
M  V30 3880 C 373.758 1.90471 0.444988 0
M  V30 3881 C 374.138 1.15209 1.7689 0
M  V30 3882 O 373.486 0.265119 2.26957 0
M  V30 3883 C 373.696 3.4333 0.626559 0
M  V30 3884 C 375.044 4.14319 0.92871 0
M  V30 3885 O 376.068 3.48993 0.712926 0
M  V30 3886 O 374.927 5.29846 1.33887 0
M  V30 3887 H 372.021 0.792347 0.236885 0
M  V30 3888 H 374.567 1.67437 -0.276211 0
M  V30 3889 H 373.339 3.90095 -0.306822 0
M  V30 3890 H 372.962 3.72181 1.39881 0
M  V30 3891 N 373.959 -0.0401083 1.57549 0
M  V30 3892 C 374.906 -1.04413 2.05831 0
M  V30 3893 C 375.876 -1.36585 0.945184 0
M  V30 3894 O 377.061 -1.47112 1.21502 0
M  V30 3895 C 374.201 -2.34336 2.53339 0
M  V30 3896 C 373.314 -2.08419 3.78398 0
M  V30 3897 C 372.449 -3.32133 4.14561 0
M  V30 3898 C 371.488 -3.01721 5.3257 0
M  V30 3899 N 370.625 -4.17855 5.64218 0
M  V30 3900 H 375.465 -0.625442 2.91363 0
M  V30 3901 H 373.002 -0.297218 1.44066 0
M  V30 3902 H 374.96 -3.10234 2.78946 0
M  V30 3903 H 373.59 -2.73948 1.7074 0
M  V30 3904 H 372.642 -1.23069 3.59942 0
M  V30 3905 H 373.954 -1.81978 4.64419 0
M  V30 3906 H 373.108 -4.16406 4.41238 0
M  V30 3907 H 371.847 -3.61678 3.2717 0
M  V30 3908 H 370.852 -2.15849 5.05657 0
M  V30 3909 H 372.077 -2.73466 6.21605 0
M  V30 3910 H 370.023 -4.47372 4.79786 0
M  V30 3911 H 369.94 -3.94798 6.44725 0
M  V30 3912 H 371.208 -5.03033 5.95465 0
M  V30 3913 N 375.437 -1.54477 -0.31217 0
M  V30 3914 C 376.685 -1.72884 -1.04668 0
M  V30 3915 C 377.006 -0.511477 -1.88173 0
M  V30 3916 O 376.276 0.474407 -1.90069 0
M  V30 3917 H 374.856 -0.637461 -0.389425 0
M  V30 3918 H 377.518 -1.91807 -0.345852 0
M  V30 3919 H 376.614 -2.61334 -1.70619 0
M  V30 3920 N 376.915 0.57481 -1.46744 0
M  V30 3921 C 377.865 1.67838 -1.54319 0
M  V30 3922 C 378.849 1.55759 -0.40346 0
M  V30 3923 O 380.041 1.6454 -0.652347 0
M  V30 3924 C 377.17 3.06624 -1.5439 0
M  V30 3925 C 376.256 3.23971 -2.73685 0
M  V30 3926 N 376.647 3.11447 -3.9854 0
M  V30 3927 C 374.945 3.5493 -2.70075 0
M  V30 3928 C 375.646 3.31011 -4.78337 0
M  V30 3929 N 374.622 3.56533 -4.10348 0
M  V30 3930 H 378.424 1.56698 -2.48642 0
M  V30 3931 H 375.938 0.779071 -1.42493 0
M  V30 3932 H 377.935 3.85839 -1.57905 0
M  V30 3933 H 376.595 3.1889 -0.611493 0
M  V30 3934 H 377.606 2.89145 -4.29669 0
M  V30 3935 H 374.283 3.73832 -1.85893 0
M  V30 3936 H 375.673 3.26445 -5.87268 0
M  V30 3937 N 378.394 1.34581 0.820102 0
M  V30 3938 C 379.341 1.2639 1.93117 0
M  V30 3939 C 380.311 0.138554 1.65521 0
M  V30 3940 O 381.496 0.320004 1.88097 0
M  V30 3941 C 378.636 1.02812 3.29429 0
M  V30 3942 C 377.749 2.24146 3.693 0
M  V30 3943 C 376.884 1.93829 4.94574 0
M  V30 3944 C 375.923 3.1129 5.27034 0
M  V30 3945 N 375.06 2.80838 6.43486 0
M  V30 3946 H 379.9 2.21408 1.99455 0
M  V30 3947 H 377.437 1.10077 0.975784 0
M  V30 3948 H 379.395 0.871788 4.0799 0
M  V30 3949 H 378.025 0.114612 3.22596 0
M  V30 3950 H 377.077 2.50691 2.86109 0
M  V30 3951 H 378.389 3.11899 3.89257 0
M  V30 3952 H 377.543 1.74948 5.80929 0
M  V30 3953 H 376.282 1.03341 4.76626 0
M  V30 3954 H 375.287 3.30764 4.39175 0
M  V30 3955 H 376.512 4.02561 5.4692 0
M  V30 3956 H 374.458 1.92929 6.26988 0
M  V30 3957 H 374.375 3.62123 6.63629 0
M  V30 3958 H 375.643 2.65467 7.32903 0
M  V30 3959 N 379.872 -1.04064 1.18357 0
M  V30 3960 C 381.102 -1.80654 1.00238 0
M  V30 3961 C 381.51 -1.83713 -0.452362 0
M  V30 3962 O 380.853 -1.27135 -1.32599 0
M  V30 3963 C 380.915 -3.27582 1.48088 0
M  V30 3964 C 380.579 -3.48184 2.96002 0
M  V30 3965 C 381.576 -3.39372 3.93856 0
M  V30 3966 C 379.261 -3.7478 3.34433 0
M  V30 3967 C 381.255 -3.5686 5.28138 0
M  V30 3968 C 378.942 -3.91915 4.68877 0
M  V30 3969 C 379.94 -3.82956 5.65539 0
M  V30 3970 O 379.628 -3.996 6.97549 0
M  V30 3971 H 379.36 -0.575751 0.354241 0
M  V30 3972 H 381.914 -1.32044 1.57333 0
M  V30 3973 H 380.144 -3.77161 0.853588 0
M  V30 3974 H 381.833 -3.8573 1.2636 0
M  V30 3975 H 382.599 -3.18789 3.65511 0
M  V30 3976 H 378.478 -3.80852 2.59756 0
M  V30 3977 H 382.022 -3.49783 6.03571 0
M  V30 3978 H 377.919 -4.11992 4.96923 0
M  V30 3979 H 378.687 -4.1676 7.04452 0
M  V30 3980 N 381.35 -0.985608 -1.22978 0
M  V30 3981 C 382.28 -0.549649 -2.26939 0
M  V30 3982 C 383.261 0.419803 -1.64838 0
M  V30 3983 O 384.446 0.31203 -1.91677 0
M  V30 3984 C 381.576 0.143652 -3.47003 0
M  V30 3985 C 380.53 -0.743606 -4.21491 0
M  V30 3986 C 379.856 0.0822027 -5.34637 0
M  V30 3987 C 381.156 -2.03694 -4.80943 0
M  V30 3988 H 382.85 -1.41862 -2.63658 0
M  V30 3989 H 380.396 -0.683571 -1.26741 0
M  V30 3990 H 382.349 0.459985 -4.18882 0
M  V30 3991 H 381.073 1.04711 -3.09359 0
M  V30 3992 H 379.732 -1.04347 -3.51436 0
M  V30 3993 H 379.38 0.986359 -4.93234 0
M  V30 3994 H 379.08 -0.508377 -5.85397 0
M  V30 3995 H 380.604 0.392797 -6.09335 0
M  V30 3996 H 382.018 -1.78504 -5.44802 0
M  V30 3997 H 380.415 -2.57573 -5.42011 0
M  V30 3998 H 381.485 -2.72042 -4.01399 0
M  V30 3999 N 382.828 1.3818 -0.7579 0
M  V30 4000 C 384.074 2.00316 -0.316453 0
M  V30 4001 C 384.407 1.60026 1.10025 0
M  V30 4002 O 383.682 0.839835 1.75434 0
M  V30 4003 C 383.965 3.57349 -0.444245 0
M  V30 4004 C 383.818 4.07591 -1.90236 0
M  V30 4005 C 385.137 4.3981 0.1598 0
M  V30 4006 H 382.256 0.727741 -0.116459 0
M  V30 4007 H 384.898 1.6406 -0.958352 0
M  V30 4008 H 383.048 3.88365 0.102233 0
M  V30 4009 H 384.72 3.87199 -2.50748 0
M  V30 4010 H 382.963 3.60297 -2.41595 0
M  V30 4011 H 383.634 5.16677 -1.94291 0
M  V30 4012 H 386.11 4.14971 -0.306314 0
M  V30 4013 H 384.986 5.48885 0.0401675 0
M  V30 4014 H 385.247 4.24102 1.24859 0
M  V30 4015 N 384.306 0.507319 1.49211 0
M  V30 4016 C 385.553 -0.0349529 2.0247 0
M  V30 4017 C 385.881 -1.36409 1.38647 0
M  V30 4018 O 385.136 -1.88841 0.513566 0
M  V30 4019 C 385.435 -0.229513 3.56662 0
M  V30 4020 C 385.101 1.02241 4.39156 0
M  V30 4021 C 383.763 1.36557 4.61417 0
M  V30 4022 C 386.115 1.85428 4.871 0
M  V30 4023 C 383.443 2.53999 5.28868 0
M  V30 4024 C 385.795 3.02028 5.55843 0
M  V30 4025 C 384.459 3.36717 5.76349 0
M  V30 4026 H 383.729 -0.0127902 0.74089 0
M  V30 4027 H 386.376 0.668756 1.79443 0
M  V30 4028 H 384.681 -1.0158 3.78403 0
M  V30 4029 H 386.378 -0.663641 3.9547 0
M  V30 4030 H 382.968 0.745124 4.22073 0
M  V30 4031 H 387.152 1.6023 4.69723 0
M  V30 4032 H 382.408 2.81105 5.42946 0
M  V30 4033 H 386.582 3.66808 5.91967 0
M  V30 4034 H 384.209 4.27821 6.28389 0
M  V30 4035 N 385.784 -1.5574 0.241426 0
M  V30 4036 C 386.694 -2.2479 -0.671305 0
M  V30 4037 C 387.71 -1.26217 -1.19772 0
M  V30 4038 O 388.886 -1.59079 -1.23514 0
M  V30 4039 C 385.951 -2.92966 -1.85396 0
M  V30 4040 C 385.012 -4.06935 -1.36756 0
M  V30 4041 C 384.245 -4.71851 -2.49384 0
M  V30 4042 O 384.468 -4.35823 -3.67987 0
M  V30 4043 O 383.402 -5.60467 -2.19454 0
M  V30 4044 H 387.228 -3.0349 -0.112966 0
M  V30 4045 H 384.813 -1.49397 0.0101513 0
M  V30 4046 H 386.695 -3.35927 -2.54423 0
M  V30 4047 H 385.37 -2.17211 -2.40002 0
M  V30 4048 H 384.277 -3.68503 -0.644726 0
M  V30 4049 H 385.61 -4.84492 -0.867647 0
M  V30 4050 N 387.262 0.0317525 -1.57568 0
M  V30 4051 C 388.225 1.01783 -2.0536 0
M  V30 4052 C 389.225 1.29203 -0.957253 0
M  V30 4053 O 390.415 1.24251 -1.22095 0
M  V30 4054 C 387.547 2.35137 -2.46827 0
M  V30 4055 H 388.74 0.605062 -2.93733 0
M  V30 4056 H 386.293 0.278514 -1.53799 0
M  V30 4057 H 387.028 2.81168 -1.61602 0
M  V30 4058 H 386.813 2.16566 -3.26866 0
M  V30 4059 H 388.303 3.05938 -2.84239 0
M  V30 4060 N 388.74 1.54641 0.303973 0
M  V30 4061 C 389.688 1.86137 1.39484 0
M  V30 4062 C 390.682 0.734854 1.52631 0
M  V30 4063 O 391.888 0.918803 1.54784 0
M  V30 4064 H 388.263 0.590324 0.465856 0
M  V30 4065 H 390.234 2.77324 1.10154 0
M  V30 4066 C 388.983 2.12274 2.75382 0
M  V30 4067 H 388.306 2.98429 2.66046 0
M  V30 4068 H 389.746 2.38254 3.5073 0
M  V30 4069 C 388.205 0.920365 3.24085 0
M  V30 4070 O 388.735 0.139377 4.01458 0
M  V30 4071 N 386.941 0.726566 2.81371 0
M  V30 4072 H 386.488 1.36332 2.18567 0
M  V30 4073 H 386.446 -0.0763799 3.14307 0
M  V30 4074 N 390.218 -0.567019 1.47046 0
M  V30 4075 C 391.446 -1.35027 1.56765 0
M  V30 4076 C 391.861 -1.8758 0.214316 0
M  V30 4077 O 391.218 -1.64471 -0.790919 0
M  V30 4078 C 391.269 -2.52698 2.58507 0
M  V30 4079 O 390.99 -2.0232 3.88585 0
M  V30 4080 C 392.491 -3.45043 2.78316 0
M  V30 4081 H 389.711 -0.41195 0.529658 0
M  V30 4082 H 392.255 -0.687832 1.92585 0
M  V30 4083 H 390.41 -3.149 2.25648 0
M  V30 4084 H 390.824 -2.79068 4.44096 0
M  V30 4085 H 392.298 -4.2405 3.53391 0
M  V30 4086 H 392.775 -3.97971 1.85784 0
M  V30 4087 H 393.381 -2.88665 3.12334 0
M  V30 4088 N 391.696 -1.35014 -0.812953 0
M  V30 4089 C 392.944 -1.27678 -1.56661 0
M  V30 4090 C 393.265 0.150359 -1.94419 0
M  V30 4091 O 392.535 1.08532 -1.63088 0
M  V30 4092 H 391.115 -0.469602 -0.580933 0
M  V30 4093 H 393.777 -1.69043 -0.970076 0
M  V30 4094 H 392.873 -1.88833 -2.48492 0
M  V30 4095 N 393.175 1.03435 -1.18907 0
M  V30 4096 C 394.403 1.80381 -1.01342 0
M  V30 4097 C 394.818 1.83649 0.438005 0
M  V30 4098 O 394.175 1.27655 1.30424 0
M  V30 4099 C 394.226 3.25689 -1.56873 0
M  V30 4100 O 393.947 3.22673 -2.96334 0
M  V30 4101 C 395.448 4.19255 -1.44014 0
M  V30 4102 H 392.668 0.56784 -0.35749 0
M  V30 4103 H 395.212 1.30317 -1.576 0
M  V30 4104 H 393.367 3.72962 -1.04777 0
M  V30 4105 H 393.781 4.13748 -3.22355 0
M  V30 4106 H 395.255 5.19123 -1.87657 0
M  V30 4107 H 395.732 4.37467 -0.389815 0
M  V30 4108 H 396.338 3.77851 -1.95214 0
M  V30 4109 N 394.653 0.992116 1.22453 0
M  V30 4110 C 395.563 0.55065 2.28046 0
M  V30 4111 C 396.579 -0.400189 1.69335 0
M  V30 4112 O 397.755 -0.267215 1.99619 0
M  V30 4113 C 394.82 -0.128496 3.46462 0
M  V30 4114 C 393.881 0.865208 4.20491 0
M  V30 4115 C 393.114 0.218377 5.33253 0
M  V30 4116 O 393.337 -0.987894 5.6178 0
M  V30 4117 O 392.271 0.922845 5.94783 0
M  V30 4118 H 396.097 1.4291 2.67975 0
M  V30 4119 H 393.682 0.760326 1.28606 0
M  V30 4120 H 395.564 -0.508947 4.18315 0
M  V30 4121 H 394.239 -0.981526 3.0846 0
M  V30 4122 H 393.146 1.29658 3.50913 0
M  V30 4123 H 394.479 1.68741 4.62371 0
M  V30 4124 N 396.131 -1.37776 0.765217 0
M  V30 4125 C 397.408 -1.93975 0.251596 0
M  V30 4126 C 397.788 -1.69949 -1.25222 0
M  V30 4127 O 397.136 -1.04457 -2.03226 0
M  V30 4128 C 397.346 -3.43487 0.617895 0
M  V30 4129 C 398.694 -4.20564 0.584029 0
M  V30 4130 O 399.718 -3.5182 0.556888 0
M  V30 4131 O 398.577 -5.43138 0.605291 0
M  V30 4132 H 395.671 -0.82509 0.0561806 0
M  V30 4133 H 398.217 -1.47101 0.846128 0
M  V30 4134 H 396.989 -3.5453 1.65602 0
M  V30 4135 H 396.612 -3.976 -0.00403411 0
M  V30 4136 N 397.609 -0.515225 -1.4894 0
M  V30 4137 C 398.857 0.0241671 -2.02086 0
M  V30 4138 C 399.178 1.3616 -1.3959 0
M  V30 4139 O 398.448 1.87841 -0.556121 0
M  V30 4140 H 397.028 0.0119203 -0.746905 0
M  V30 4141 H 399.69 -0.675702 -1.82812 0
M  V30 4142 H 398.786 0.143385 -3.1177 0
M  V30 4143 N 399.087 1.5561 -0.249682 0
M  V30 4144 C 400.317 2.03116 0.377803 0
M  V30 4145 C 400.725 1.12822 1.51881 0
M  V30 4146 O 400.068 0.13562 1.83199 0
M  V30 4147 C 400.13 3.46866 0.944693 0
M  V30 4148 C 399.794 4.56955 -0.0644259 0
M  V30 4149 C 400.791 5.12485 -0.874957 0
M  V30 4150 C 398.476 5.01936 -0.19132 0
M  V30 4151 C 400.47 6.11491 -1.79881 0
M  V30 4152 C 398.157 6.00773 -1.11868 0
M  V30 4153 C 399.155 6.5543 -1.92095 0
M  V30 4154 O 398.843 7.5234 -2.83267 0
M  V30 4155 H 398.575 0.669489 0.0935961 0
M  V30 4156 H 401.129 2.02004 -0.371966 0
M  V30 4157 H 399.359 3.45136 1.74407 0
M  V30 4158 H 401.048 3.77856 1.48255 0
M  V30 4159 H 401.814 4.78564 -0.787523 0
M  V30 4160 H 397.693 4.59055 0.423072 0
M  V30 4161 H 401.237 6.54078 -2.42543 0
M  V30 4162 H 397.134 6.34114 -1.20703 0
M  V30 4163 H 397.902 7.69966 -2.7766 0
M  V30 4164 N 400.565 -0.0233959 1.57583 0
M  V30 4165 C 401.497 -1.04994 2.03737 0
M  V30 4166 C 402.51 -1.32125 0.951152 0
M  V30 4167 O 403.699 -1.29512 1.22837 0
M  V30 4168 C 400.799 -2.39026 2.40249 0
M  V30 4169 C 399.972 -2.31171 3.7132 0
M  V30 4170 C 399.031 -3.47698 3.94959 0
M  V30 4171 O 398.057 -3.26937 4.65941 0
M  V30 4172 N 399.259 -4.6976 3.41037 0
M  V30 4173 H 402.024 -0.656507 2.92421 0
M  V30 4174 H 399.585 -0.211235 1.60516 0
M  V30 4175 H 401.577 -3.15712 2.53196 0
M  V30 4176 H 400.147 -2.70194 1.57207 0
M  V30 4177 H 399.367 -1.39547 3.68674 0
M  V30 4178 H 400.655 -2.23071 4.57293 0
M  V30 4179 H 400.053 -4.89528 2.83512 0
M  V30 4180 H 398.61 -5.43791 3.59353 0
M  V30 4181 N 402.043 -1.548 -0.295768 0
M  V30 4182 C 403.291 -1.73985 -1.02828 0
M  V30 4183 C 403.612 -0.531406 -1.87619 0
M  V30 4184 O 402.882 0.454221 -1.90561 0
M  V30 4185 H 401.462 -0.641556 -0.382642 0
M  V30 4186 H 404.124 -1.92163 -0.325489 0
M  V30 4187 H 403.22 -2.63129 -1.67838 0
M  V30 4188 N 403.521 0.559213 -1.47345 0
M  V30 4189 C 404.431 1.69388 -1.62311 0
M  V30 4190 C 405.447 1.6648 -0.505993 0
M  V30 4191 O 406.623 1.85964 -0.773262 0
M  V30 4192 C 403.688 3.05894 -1.63185 0
M  V30 4193 C 402.749 3.19885 -2.86307 0
M  V30 4194 C 401.982 4.49879 -2.87131 0
M  V30 4195 O 402.205 5.35217 -1.97229 0
M  V30 4196 O 401.139 4.67618 -3.78968 0
M  V30 4197 H 404.965 1.59706 -2.58317 0
M  V30 4198 H 402.55 0.728989 -1.30407 0
M  V30 4199 H 404.432 3.87133 -1.66451 0
M  V30 4200 H 403.107 3.15964 -0.70345 0
M  V30 4201 H 402.014 2.38052 -2.88587 0
M  V30 4202 H 403.347 3.14718 -3.78435 0
M  V30 4203 N 404.999 1.35443 0.805782 0
M  V30 4204 C 405.909 1.30546 1.94923 0
M  V30 4205 C 406.925 0.210233 1.72725 0
M  V30 4206 O 408.101 0.43975 1.9654 0
M  V30 4207 C 405.166 1.07782 3.29521 0
M  V30 4208 C 404.227 2.26625 3.64609 0
M  V30 4209 C 403.46 2.04938 4.92784 0
M  V30 4210 O 403.683 1.01624 5.61274 0
M  V30 4211 O 402.617 2.9232 5.26149 0
M  V30 4212 H 406.443 2.26779 2.02002 0
M  V30 4213 H 404.028 1.15823 0.943682 0
M  V30 4214 H 405.91 0.969392 4.10098 0
M  V30 4215 H 404.585 0.146003 3.23371 0
M  V30 4216 H 403.492 2.43033 2.84404 0
M  V30 4217 H 404.825 3.18257 3.75464 0
M  V30 4218 N 406.477 -1.02803 1.19454 0
M  V30 4219 C 407.702 -1.80378 1.02364 0
M  V30 4220 C 408.127 -1.83282 -0.423007 0
M  V30 4221 O 407.485 -1.25945 -1.30413 0
M  V30 4222 C 407.533 -3.23248 1.59821 0
M  V30 4223 O 406.637 -4.04 0.828105 0
M  V30 4224 H 405.978 -0.556799 0.361761 0
M  V30 4225 H 408.508 -1.29385 1.58495 0
M  V30 4226 H 408.518 -3.73994 1.63073 0
M  V30 4227 H 407.193 -3.2045 2.65113 0
M  V30 4228 H 405.77 -3.62635 0.86891 0
M  V30 4229 N 407.956 -0.998596 -1.21925 0
M  V30 4230 C 408.886 -0.573688 -2.26343 0
M  V30 4231 C 409.867 0.402296 -1.65274 0
M  V30 4232 O 411.052 0.291683 -1.91997 0
M  V30 4233 C 408.182 0.106839 -3.47136 0
M  V30 4234 C 407.136 -0.788269 -4.20678 0
M  V30 4235 C 406.462 0.0254927 -5.34694 0
M  V30 4236 C 407.762 -2.08784 -4.78755 0
M  V30 4237 H 409.456 -1.44651 -2.62138 0
M  V30 4238 H 407.002 -0.696975 -1.26009 0
M  V30 4239 H 408.955 0.415531 -4.19346 0
M  V30 4240 H 407.679 1.01424 -3.10452 0
M  V30 4241 H 406.338 -1.08069 -3.50309 0
M  V30 4242 H 405.986 0.933989 -4.94253 0
M  V30 4243 H 405.686 -0.570437 -5.84825 0
M  V30 4244 H 407.21 0.328147 -6.09718 0
M  V30 4245 H 408.624 -1.84272 -5.42878 0
M  V30 4246 H 407.021 -2.63307 -5.39249 0
M  V30 4247 H 408.091 -2.76284 -3.98491 0
M  V30 4248 N 409.434 1.37368 -0.772513 0
M  V30 4249 C 410.681 1.99673 -0.337182 0
M  V30 4250 C 411.009 1.61324 1.0865 0
M  V30 4251 O 410.264 0.851377 1.7621 0
M  V30 4252 C 410.563 3.54817 -0.428876 0
M  V30 4253 C 410.229 4.12936 -1.81092 0
M  V30 4254 C 408.891 4.28523 -2.1891 0
M  V30 4255 C 411.243 4.44801 -2.71664 0
M  V30 4256 C 408.571 4.73277 -3.46735 0
M  V30 4257 C 410.923 4.90981 -3.98899 0
M  V30 4258 C 409.587 5.04773 -4.36761 0
M  V30 4259 H 408.857 0.730656 -0.123384 0
M  V30 4260 H 411.504 1.64124 -0.986686 0
M  V30 4261 H 409.809 3.90618 0.304167 0
M  V30 4262 H 411.506 4.00933 -0.0733334 0
M  V30 4263 H 408.096 4.01233 -1.50699 0
M  V30 4264 H 412.28 4.32344 -2.43706 0
M  V30 4265 H 407.536 4.82142 -3.75964 0
M  V30 4266 H 411.71 5.14603 -4.69208 0
M  V30 4267 H 409.337 5.39211 -5.35868 0
M  V30 4268 N 410.912 0.523116 1.48665 0
M  V30 4269 C 411.86 -0.256859 2.31177 0
M  V30 4270 C 412.854 -0.94199 1.40794 0
M  V30 4271 O 414.06 -0.867157 1.57735 0
M  V30 4272 H 410.435 -0.1017 0.745091 0
M  V30 4273 H 412.406 0.458739 2.94853 0
M  V30 4274 C 411.155 -1.29503 3.22683 0
M  V30 4275 H 410.478 -0.777248 3.92172 0
M  V30 4276 H 411.918 -1.81233 3.83315 0
M  V30 4277 C 410.377 -2.32501 2.43813 0
M  V30 4278 O 410.907 -3.3881 2.15803 0
M  V30 4279 N 409.113 -2.05538 2.05432 0
M  V30 4280 H 408.66 -1.19104 2.28412 0
M  V30 4281 H 408.618 -2.74676 1.52973 0
M  V30 4282 N 412.39 -1.55475 0.257931 0
M  V30 4283 C 413.337 -2.21837 -0.636939 0
M  V30 4284 C 414.307 -1.18596 -1.16294 0
M  V30 4285 O 415.492 -1.47081 -1.21539 0
M  V30 4286 C 412.632 -2.9301 -1.82317 0
M  V30 4287 C 411.745 -4.10931 -1.33265 0
M  V30 4288 C 410.88 -4.69791 -2.47931 0
M  V30 4289 C 409.919 -5.7994 -1.95796 0
M  V30 4290 N 409.056 -6.32935 -3.0387 0
M  V30 4291 H 413.896 -2.9793 -0.0643591 0
M  V30 4292 H 411.433 -1.47086 -0.0200031 0
M  V30 4293 H 413.391 -3.3248 -2.52018 0
M  V30 4294 H 412.021 -2.1937 -2.36805 0
M  V30 4295 H 411.073 -3.76699 -0.52931 0
M  V30 4296 H 412.385 -4.90417 -0.910654 0
M  V30 4297 H 411.539 -5.11892 -3.25656 0
M  V30 4298 H 410.278 -3.89545 -2.93438 0
M  V30 4299 H 409.283 -5.37305 -1.16546 0
M  V30 4300 H 410.508 -6.62043 -1.51246 0
M  V30 4301 H 408.454 -5.55591 -3.48791 0
M  V30 4302 H 408.371 -7.07645 -2.66035 0
M  V30 4303 H 409.639 -6.79695 -3.81621 0
M  V30 4304 N 413.868 0.0150385 -1.57593 0
M  V30 4305 C 414.831 0.995996 -2.06428 0
M  V30 4306 C 415.831 1.2818 -0.970903 0
M  V30 4307 O 417.021 1.22949 -1.23406 0
M  V30 4308 C 414.153 2.32506 -2.49307 0
M  V30 4309 H 415.346 0.573873 -2.94358 0
M  V30 4310 H 412.899 0.262186 -1.54085 0
M  V30 4311 H 413.634 2.79438 -1.64575 0
M  V30 4312 H 413.419 2.13087 -3.29145 0
M  V30 4313 H 414.909 3.02906 -2.87468 0
M  V30 4314 N 415.346 1.54954 0.287554 0
M  V30 4315 C 416.576 1.78622 1.03816 0
M  V30 4316 C 416.984 0.552451 1.80955 0
M  V30 4317 O 416.327 -0.487665 1.77109 0
M  V30 4318 C 416.389 2.94975 2.055 0
M  V30 4319 C 416.053 4.32565 1.47433 0
M  V30 4320 C 417.05 5.12096 0.897436 0
M  V30 4321 C 414.735 4.79195 1.50591 0
M  V30 4322 C 416.729 6.36383 0.359851 0
M  V30 4323 C 414.416 6.03441 0.964459 0
M  V30 4324 C 415.414 6.81872 0.392413 0
M  V30 4325 O 415.102 8.03777 -0.140788 0
M  V30 4326 H 414.834 0.599144 0.313053 0
M  V30 4327 H 417.388 2.02761 0.328225 0
M  V30 4328 H 415.618 2.66493 2.80211 0
M  V30 4329 H 417.307 3.06097 2.6657 0
M  V30 4330 H 418.073 4.77209 0.865841 0
M  V30 4331 H 413.952 4.18167 1.94055 0
M  V30 4332 H 417.496 6.97545 -0.0872951 0
M  V30 4333 H 413.393 6.37813 0.993246 0
M  V30 4334 H 414.161 8.18495 -0.0287617 0
M  V30 4335 N 416.824 -0.551391 1.4764 0
M  V30 4336 C 418.054 -1.33163 1.57959 0
M  V30 4337 C 418.462 -1.87785 0.23094 0
M  V30 4338 O 417.805 -1.65996 -0.786825 0
M  V30 4339 C 417.867 -2.53449 2.54958 0
M  V30 4340 C 417.531 -2.20071 4.00522 0
M  V30 4341 C 418.528 -1.77017 4.88836 0
M  V30 4342 C 416.213 -2.31252 4.45901 0
M  V30 4343 C 418.207 -1.4558 6.20552 0
M  V30 4344 C 415.894 -1.99427 5.77644 0
M  V30 4345 C 416.892 -1.56659 6.64791 0
M  V30 4346 O 416.58 -1.25242 7.94084 0
M  V30 4347 H 416.312 -0.412022 0.535923 0
M  V30 4348 H 418.866 -0.674186 1.9402 0
M  V30 4349 H 417.096 -3.22104 2.13976 0
M  V30 4350 H 418.785 -3.15523 2.55343 0
M  V30 4351 H 419.551 -1.67867 4.55023 0
M  V30 4352 H 415.43 -2.63498 3.78272 0
M  V30 4353 H 418.974 -1.12125 6.8853 0
M  V30 4354 H 414.871 -2.08211 6.10998 0
M  V30 4355 H 415.639 -1.38822 8.06642 0
M  V30 4356 N 418.302 -1.35869 -0.798587 0
M  V30 4357 C 419.55 -1.29332 -1.55298 0
M  V30 4358 C 419.871 0.129729 -1.94568 0
M  V30 4359 O 419.141 1.06796 -1.6423 0
M  V30 4360 H 417.721 -0.475737 -0.57592 0
M  V30 4361 H 420.383 -1.70062 -0.952093 0
M  V30 4362 H 419.479 -1.91458 -2.46476 0
M  V30 4363 N 419.78 1.02168 -1.19998 0
M  V30 4364 C 420.727 2.10601 -0.944228 0
M  V30 4365 C 421.697 1.65639 0.123664 0
M  V30 4366 O 422.882 1.9079 -0.0199941 0
M  V30 4367 C 420.022 3.41504 -0.496865 0
M  V30 4368 C 419.135 3.99973 -1.63234 0
M  V30 4369 C 418.27 5.18915 -1.13579 0
M  V30 4370 C 417.309 5.69456 -2.24468 0
M  V30 4371 N 416.446 6.79665 -1.76068 0
M  V30 4372 H 421.286 2.31814 -1.8726 0
M  V30 4373 H 418.823 1.13686 -0.933483 0
M  V30 4374 H 420.781 4.16626 -0.218843 0
M  V30 4375 H 419.411 3.2038 0.394508 0
M  V30 4376 H 418.463 3.21997 -2.0254 0
M  V30 4377 H 419.775 4.33492 -2.46752 0
M  V30 4378 H 418.929 6.01222 -0.813429 0
M  V30 4379 H 417.668 4.8695 -0.270434 0
M  V30 4380 H 416.673 4.85757 -2.57526 0
M  V30 4381 H 417.898 6.03459 -3.11472 0
M  V30 4382 H 415.844 6.49538 -0.918516 0
M  V30 4383 H 415.761 7.12349 -2.5317 0
M  V30 4384 H 417.029 7.65549 -1.46817 0
M  V30 4385 N 421.258 1.00505 1.21394 0
M  V30 4386 C 422.483 0.706367 1.95001 0
M  V30 4387 C 422.908 -0.72463 1.73582 0
M  V30 4388 O 422.266 -1.49702 1.0227 0
M  V30 4389 C 422.314 1.03299 3.45487 0
M  V30 4390 O 421.418 0.138275 4.12168 0
M  V30 4391 H 420.759 0.263175 0.609619 0
M  V30 4392 H 423.289 1.34531 1.54151 0
M  V30 4393 H 423.299 0.979872 3.96059 0
M  V30 4394 H 421.974 2.07567 3.60401 0
M  V30 4395 H 420.551 0.247928 3.72075 0
M  V30 4396 N 422.737 -1.36956 0.779787 0
M  V30 4397 C 423.965 -2.03755 0.359398 0
M  V30 4398 C 424.38 -1.58807 -1.02106 0
M  V30 4399 O 423.737 -0.773024 -1.6532 0
M  V30 4400 C 423.788 -3.59251 0.402568 0
M  V30 4401 O 423.509 -4.02557 1.72858 0
M  V30 4402 C 425.01 -4.43291 -0.0284068 0
M  V30 4403 H 422.23 -0.654148 0.149437 0
M  V30 4404 H 424.774 -1.75128 1.05595 0
M  V30 4405 H 422.929 -3.86621 -0.245478 0
M  V30 4406 H 423.343 -4.97111 1.67275 0
M  V30 4407 H 424.817 -5.51975 0.0529466 0
M  V30 4408 H 425.294 -4.25719 -1.07982 0
M  V30 4409 H 425.9 -4.21163 0.591758 0
M  V30 4410 N 424.215 -0.530993 -1.48385 0
M  V30 4411 C 425.44 0.000729535 -2.074 0
M  V30 4412 C 425.865 1.27298 -1.3848 0
M  V30 4413 O 425.223 1.75599 -0.451081 0
M  V30 4414 C 425.271 0.206697 -3.60007 0
M  V30 4415 O 424.375 1.27514 -3.92191 0
M  V30 4416 H 423.716 -0.039583 -0.662819 0
M  V30 4417 H 426.246 -0.739194 -1.9078 0
M  V30 4418 H 426.256 0.42904 -4.05738 0
M  V30 4419 H 424.931 -0.722675 -4.09573 0
M  V30 4420 H 423.508 1.03537 -3.58238 0
M  V30 4421 N 425.693 1.55336 -0.266172 0
M  V30 4422 C 426.94 1.99397 0.353158 0
M  V30 4423 C 427.268 1.15451 1.56529 0
M  V30 4424 O 426.523 0.209974 1.9457 0
M  V30 4425 C 426.822 3.48606 0.787957 0
M  V30 4426 C 426.488 4.49773 -0.318541 0
M  V30 4427 C 425.15 4.77158 -0.62239 0
M  V30 4428 C 427.502 5.10212 -1.06459 0
M  V30 4429 C 424.83 5.62251 -1.67602 0
M  V30 4430 C 427.182 5.96449 -2.10788 0
M  V30 4431 C 425.846 6.22158 -2.41817 0
M  V30 4432 H 425.116 0.729644 0.12923 0
M  V30 4433 H 427.763 1.87732 -0.37802 0
M  V30 4434 H 426.068 3.57701 1.59866 0
M  V30 4435 H 427.765 3.80098 1.27775 0
M  V30 4436 H 424.355 4.2854 -0.0715925 0
M  V30 4437 H 428.539 4.89086 -0.843098 0
M  V30 4438 H 423.795 5.80419 -1.92155 0
M  V30 4439 H 427.969 6.42317 -2.69076 0
M  V30 4440 H 425.596 6.87888 -3.23596 0
M  V30 4441 N 427.171 -0.0066808 1.57599 0
M  V30 4442 C 428.418 -0.69292 1.90276 0
M  V30 4443 C 428.746 -1.74148 0.866192 0
M  V30 4444 O 428.001 -1.95268 -0.129933 0
M  V30 4445 C 428.3 -1.37939 3.29708 0
M  V30 4446 C 427.966 -0.464679 4.48499 0
M  V30 4447 C 426.628 -0.212809 4.80729 0
M  V30 4448 C 428.98 0.16551 5.20937 0
M  V30 4449 C 426.308 0.677653 5.82773 0
M  V30 4450 C 428.66 1.04381 6.23929 0
M  V30 4451 C 427.324 1.30492 6.54621 0
M  V30 4452 H 426.594 -0.253558 0.696268 0
M  V30 4453 H 429.241 0.0474123 1.91441 0
M  V30 4454 H 427.546 -2.1936 3.24636 0
M  V30 4455 H 429.243 -1.9163 3.52249 0
M  V30 4456 H 425.833 -0.671153 4.23313 0
M  V30 4457 H 430.017 -0.0160756 4.96297 0
M  V30 4458 H 425.273 0.88803 6.04917 0
M  V30 4459 H 429.447 1.53851 6.79193 0
M  V30 4460 H 427.074 1.99662 7.33512 0
M  V30 4461 N 428.649 -1.55105 -0.279332 0
M  V30 4462 C 430.065 -1.46803 -0.626187 0
M  V30 4463 C 430.265 -0.676939 -1.89789 0
M  V30 4464 O 429.321 -0.19326 -2.51759 0
M  V30 4465 C 430.634 -2.90962 -0.759034 0
M  V30 4466 C 432.182 -3.01138 -0.853504 0
M  V30 4467 C 432.657 -4.46539 -1.01818 0
M  V30 4468 N 434.148 -4.50341 -1.08386 0
M  V30 4469 C 434.883 -5.60053 -1.22996 0
M  V30 4470 N 434.379 -6.79645 -1.34366 0
M  V30 4471 N 436.172 -5.47783 -1.26056 0
M  V30 4472 H 428.323 -2.04996 0.555921 0
M  V30 4473 H 430.586 -0.929325 0.187239 0
M  V30 4474 H 430.292 -3.51544 0.104852 0
M  V30 4475 H 430.166 -3.39619 -1.64131 0
M  V30 4476 H 432.553 -2.40658 -1.70786 0
M  V30 4477 H 432.634 -2.55745 0.0532466 0
M  V30 4478 H 432.278 -5.0762 -0.168504 0
M  V30 4479 H 432.208 -4.89583 -1.93948 0
M  V30 4480 H 434.699 -3.64191 -1.00864 0
M  V30 4481 H 435.012 -7.59012 -1.4533 0
M  V30 4482 H 433.357 -6.82469 -1.31382 0
M  V30 4483 H 436.548 -4.53294 -1.168 0
M  V30 4484 H 436.721 -6.33331 -1.37098 0
M  V30 4485 N 430.127 0.543554 -1.4793 0
M  V30 4486 C 431.059 1.665 -1.57513 0
M  V30 4487 C 432.072 1.56156 -0.460333 0
M  V30 4488 O 433.261 1.62865 -0.730573 0
M  V30 4489 C 430.361 3.05063 -1.47614 0
M  V30 4490 C 429.534 3.41024 -2.739 0
M  V30 4491 C 428.593 4.58809 -2.57645 0
M  V30 4492 O 427.619 4.62707 -3.31498 0
M  V30 4493 N 428.821 5.56149 -1.66368 0
M  V30 4494 H 431.586 1.5872 -2.5422 0
M  V30 4495 H 429.147 0.730517 -1.44482 0
M  V30 4496 H 431.139 3.81712 -1.34455 0
M  V30 4497 H 429.709 3.06994 -0.589359 0
M  V30 4498 H 428.929 2.53687 -3.01723 0
M  V30 4499 H 430.217 3.61831 -3.57709 0
M  V30 4500 H 429.615 5.55767 -1.05543 0
M  V30 4501 H 428.172 6.32071 -1.59154 0
M  V30 4502 N 431.605 1.3629 0.791371 0
M  V30 4503 C 432.515 1.32606 1.93527 0
M  V30 4504 C 433.531 0.228541 1.72493 0
M  V30 4505 O 434.707 0.460571 1.96063 0
M  V30 4506 C 431.772 1.11271 3.28359 0
M  V30 4507 C 430.833 2.3048 3.62185 0
M  V30 4508 C 430.066 2.10154 4.90583 0
M  V30 4509 O 430.289 1.07572 5.60165 0
M  V30 4510 O 429.223 2.97884 5.23019 0
M  V30 4511 H 433.049 2.28909 1.99585 0
M  V30 4512 H 430.634 1.16818 0.931344 0
M  V30 4513 H 432.516 1.01283 4.09047 0
M  V30 4514 H 431.191 0.180292 3.23198 0
M  V30 4515 H 430.098 2.46036 2.81811 0
M  V30 4516 H 431.431 3.22221 3.72068 0
M  V30 4517 N 433.083 -1.0153 1.20538 0
M  V30 4518 C 434.308 -1.79283 1.04271 0
M  V30 4519 C 434.733 -1.8372 -0.403544 0
M  V30 4520 O 434.091 -1.27321 -1.2907 0
M  V30 4521 C 434.139 -3.21535 1.63241 0
M  V30 4522 O 433.243 -4.03099 0.870908 0
M  V30 4523 H 432.584 -0.55293 0.367647 0
M  V30 4524 H 435.114 -1.27696 1.59859 0
M  V30 4525 H 435.124 -3.72243 1.6703 0
M  V30 4526 H 433.799 -3.1762 2.68497 0
M  V30 4527 H 432.376 -3.61693 0.907323 0
M  V30 4528 N 434.561 -1.01147 -1.20859 0
M  V30 4529 C 435.493 -0.535546 -2.22855 0
M  V30 4530 C 436.506 0.379323 -1.58319 0
M  V30 4531 O 437.695 0.178489 -1.77605 0
M  V30 4532 C 434.795 0.240962 -3.38042 0
M  V30 4533 C 433.968 -0.674562 -4.32167 0
M  V30 4534 C 433.027 0.053467 -5.26173 0
M  V30 4535 O 432.053 -0.567339 -5.66366 0
M  V30 4536 N 433.255 1.32997 -5.65059 0
M  V30 4537 H 436.02 -1.41268 -2.64317 0
M  V30 4538 H 433.581 -0.888386 -1.35349 0
M  V30 4539 H 435.573 0.737115 -3.97931 0
M  V30 4540 H 434.143 1.01935 -2.95513 0
M  V30 4541 H 433.363 -1.35111 -3.70322 0
M  V30 4542 H 434.651 -1.2974 -4.91981 0
M  V30 4543 H 434.049 1.85536 -5.34409 0
M  V30 4544 H 432.606 1.77095 -6.2728 0
M  V30 4545 N 436.039 1.36541 -0.78704 0
M  V30 4546 C 436.986 2.30082 -0.181901 0
M  V30 4547 C 437.956 1.5186 0.672896 0
M  V30 4548 O 439.141 1.80374 0.622072 0
M  V30 4549 C 436.281 3.3835 0.679197 0
M  V30 4550 C 435.394 4.31565 -0.193882 0
M  V30 4551 C 434.529 5.26915 0.673364 0
M  V30 4552 C 433.568 6.11769 -0.201315 0
M  V30 4553 N 432.705 6.99315 0.624777 0
M  V30 4554 H 437.545 2.81248 -0.985064 0
M  V30 4555 H 435.082 1.38437 -0.497342 0
M  V30 4556 H 437.04 3.99767 1.19341 0
M  V30 4557 H 435.67 2.8851 1.44781 0
M  V30 4558 H 434.722 3.71323 -0.826044 0
M  V30 4559 H 436.034 4.91191 -0.867937 0
M  V30 4560 H 435.188 5.9361 1.25348 0
M  V30 4561 H 433.927 4.67737 1.38105 0
M  V30 4562 H 432.932 5.44039 -0.793849 0
M  V30 4563 H 434.157 6.73022 -0.906568 0
M  V30 4564 H 432.103 6.42648 1.3168 0
M  V30 4565 H 432.02 7.56 0.00835237 0
M  V30 4566 H 433.288 7.70382 1.18879 0
M  V30 4567 N 437.518 0.538854 1.48102 0
M  V30 4568 C 438.448 -0.207654 2.32575 0
M  V30 4569 C 439.429 -0.926559 1.4265 0
M  V30 4570 O 440.614 -0.91061 1.71527 0
M  V30 4571 C 437.744 -1.24957 3.24042 0
M  V30 4572 C 436.698 -0.648263 4.23062 0
M  V30 4573 C 436.024 -1.79348 5.03725 0
M  V30 4574 C 437.324 0.385897 5.20872 0
M  V30 4575 H 439.018 0.497534 2.95237 0
M  V30 4576 H 436.564 0.240715 1.41974 0
M  V30 4577 H 438.517 -1.77983 3.81969 0
M  V30 4578 H 437.241 -1.98446 2.59397 0
M  V30 4579 H 435.9 -0.139452 3.66335 0
M  V30 4580 H 435.548 -2.51696 4.35498 0
M  V30 4581 H 435.248 -1.39702 5.70751 0
M  V30 4582 H 436.772 -2.32735 5.64506 0
M  V30 4583 H 438.186 -0.057607 5.73271 0
M  V30 4584 H 436.583 0.700227 5.96001 0
M  V30 4585 H 437.653 1.28848 4.67468 0
M  V30 4586 N 438.996 -1.55193 0.274407 0
M  V30 4587 C 439.926 -2.25471 -0.607032 0
M  V30 4588 C 440.907 -1.24461 -1.15946 0
M  V30 4589 O 442.092 -1.53179 -1.19373 0
M  V30 4590 C 439.222 -2.97526 -1.79153 0
M  V30 4591 C 438.176 -4.05459 -1.37067 0
M  V30 4592 C 437.502 -4.65084 -2.6382 0
M  V30 4593 C 438.802 -5.19691 -0.521389 0
M  V30 4594 H 440.496 -2.99393 -0.0209343 0
M  V30 4595 H 438.042 -1.43997 -0.00862866 0
M  V30 4596 H 439.995 -3.45402 -2.41404 0
M  V30 4597 H 438.719 -2.21138 -2.40344 0
M  V30 4598 H 437.378 -3.58393 -0.771355 0
M  V30 4599 H 437.026 -3.85365 -3.23268 0
M  V30 4600 H 436.726 -5.37961 -2.36372 0
M  V30 4601 H 438.25 -5.15708 -3.26921 0
M  V30 4602 H 439.664 -5.63623 -1.04889 0
M  V30 4603 H 438.061 -5.99126 -0.341825 0
M  V30 4604 H 439.131 -4.82713 0.46 0
M  V30 4605 N 440.474 -0.00167713 -1.576 0
M  V30 4606 C 441.406 1.0174 -2.05382 0
M  V30 4607 C 442.419 1.30595 -0.972052 0
M  V30 4608 O 443.608 1.27542 -1.24882 0
M  V30 4609 C 440.708 2.35174 -2.44022 0
M  V30 4610 C 439.881 2.25234 -3.74951 0
M  V30 4611 C 438.94 3.4137 -4.00441 0
M  V30 4612 O 437.966 3.19483 -4.71083 0
M  V30 4613 N 439.168 4.64275 -3.48467 0
M  V30 4614 H 441.933 0.609902 -2.93428 0
M  V30 4615 H 439.494 0.185672 -1.60832 0
M  V30 4616 H 441.486 3.11643 -2.58187 0
M  V30 4617 H 440.056 2.67659 -1.61485 0
M  V30 4618 H 439.276 1.33664 -3.70847 0
M  V30 4619 H 440.564 2.15767 -4.60784 0
M  V30 4620 H 439.962 4.84955 -2.91264 0
M  V30 4621 H 438.519 5.38005 -3.67959 0
M  V30 4622 N 441.952 1.55251 0.271103 0
M  V30 4623 C 443.177 1.80306 1.02491 0
M  V30 4624 C 443.602 0.575457 1.79081 0
M  V30 4625 O 442.96 -0.474987 1.74967 0
M  V30 4626 C 443.008 3.02832 1.95768 0
M  V30 4627 O 442.112 2.78051 3.04568 0
M  V30 4628 H 441.453 0.595896 0.292923 0
M  V30 4629 H 443.983 2.02397 0.299436 0
M  V30 4630 H 443.993 3.31616 2.37686 0
M  V30 4631 H 442.668 3.9183 1.39434 0
M  V30 4632 H 441.245 2.60369 2.66951 0
M  V30 4633 N 443.43 -0.535701 1.48216 0
M  V30 4634 C 444.707 -1.29683 1.46429 0
M  V30 4635 C 445.087 -2.10391 0.172852 0
M  V30 4636 O 444.435 -2.12282 -0.845488 0
M  V30 4637 C 444.645 -2.18313 2.72287 0
M  V30 4638 C 445.993 -2.78639 3.20383 0
M  V30 4639 O 447.017 -2.28604 2.73164 0
M  V30 4640 O 445.876 -3.69636 4.02531 0
M  V30 4641 H 442.97 -0.585026 0.584529 0
M  V30 4642 H 445.516 -0.552827 1.60443 0
M  V30 4643 H 444.288 -1.58421 3.57797 0
M  V30 4644 H 443.911 -2.99971 2.60966 0
M  V30 4645 N 444.908 -1.36708 -0.784132 0
M  V30 4646 C 445.855 -1.31466 -1.89698 0
M  V30 4647 C 446.825 -0.18239 -1.65096 0
M  V30 4648 O 448.01 -0.369762 -1.87183 0
M  V30 4649 C 445.15 -1.1151 -3.26588 0
M  V30 4650 C 444.263 -2.33859 -3.63227 0
M  V30 4651 C 443.398 -2.06873 -4.89262 0
M  V30 4652 C 442.437 -3.25154 -5.18595 0
M  V30 4653 N 441.574 -2.978 -6.35814 0
M  V30 4654 H 446.414 -2.26619 -1.93515 0
M  V30 4655 H 443.951 -1.12625 -0.946256 0
M  V30 4656 H 445.909 -0.979653 -4.05535 0
M  V30 4657 H 444.539 -0.200103 -3.22179 0
M  V30 4658 H 443.591 -2.58188 -2.79362 0
M  V30 4659 H 444.903 -3.22109 -3.8085 0
M  V30 4660 H 444.057 -1.90289 -5.76086 0
M  V30 4661 H 442.796 -1.15942 -4.73718 0
M  V30 4662 H 441.801 -3.42292 -4.30251 0
M  V30 4663 H 443.026 -4.1692 -5.36055 0
M  V30 4664 H 440.972 -2.09485 -6.21653 0
M  V30 4665 H 440.889 -3.7959 -6.53794 0
M  V30 4666 H 442.157 -2.84805 -7.25607 0
M  V30 4667 N 446.386 1.0089 -1.21074 0
M  V30 4668 C 447.333 2.09588 -0.966512 0
M  V30 4669 C 448.303 1.65761 0.106089 0
M  V30 4670 O 449.488 1.90758 -0.0402287 0
M  V30 4671 C 446.628 3.40958 -0.533058 0
M  V30 4672 C 445.741 3.9822 -1.67467 0
M  V30 4673 C 444.876 5.17682 -1.19076 0
M  V30 4674 C 443.915 5.67043 -2.30496 0
M  V30 4675 N 443.052 6.77759 -1.83267 0
M  V30 4676 H 447.892 2.29815 -1.89708 0
M  V30 4677 H 445.429 1.12689 -0.945489 0
M  V30 4678 H 447.387 4.1637 -0.263019 0
M  V30 4679 H 446.017 3.20781 0.360505 0
M  V30 4680 H 445.069 3.1983 -2.05944 0
M  V30 4681 H 446.381 4.3085 -2.51336 0
M  V30 4682 H 445.535 6.00326 -0.877151 0
M  V30 4683 H 444.274 4.86635 -0.322066 0
M  V30 4684 H 443.279 4.82999 -2.62664 0
M  V30 4685 H 444.504 6.00121 -3.17855 0
M  V30 4686 H 442.45 6.48527 -0.987356 0
M  V30 4687 H 442.367 7.09624 -2.60711 0
M  V30 4688 H 443.635 7.63949 -1.54928 0
M  V30 4689 N 447.864 1.01787 1.20321 0
M  V30 4690 C 449.28 0.732951 1.41774 0
M  V30 4691 C 449.48 -0.686883 1.89431 0
M  V30 4692 O 448.536 -1.45446 2.06402 0
M  V30 4693 C 449.849 1.75973 2.43832 0
M  V30 4694 C 451.397 1.77802 2.57596 0
M  V30 4695 C 451.872 2.7941 3.62897 0
M  V30 4696 N 453.363 2.78157 3.70382 0
M  V30 4697 C 454.098 3.53434 4.51521 0
M  V30 4698 N 453.594 4.38392 5.36455 0
M  V30 4699 N 455.387 3.42026 4.46066 0
M  V30 4700 H 447.538 1.93447 0.877035 0
M  V30 4701 H 449.801 0.835712 0.447536 0
M  V30 4702 H 449.507 2.77699 2.15815 0
M  V30 4703 H 449.381 1.57292 3.4284 0
M  V30 4704 H 451.768 0.767602 2.84942 0
M  V30 4705 H 451.849 2.00557 1.58779 0
M  V30 4706 H 451.493 3.80616 3.36295 0
M  V30 4707 H 451.423 2.53916 4.61339 0
M  V30 4708 H 453.914 2.16531 3.09714 0
M  V30 4709 H 454.227 4.92596 5.95457 0
M  V30 4710 H 452.572 4.4247 5.35953 0
M  V30 4711 H 455.763 2.75075 3.78749 0
M  V30 4712 H 455.936 4.00946 5.09064 0
M  V30 4713 N 449.342 -1.36122 0.79427 0
M  V30 4714 C 450.57 -2.03362 0.380989 0
M  V30 4715 C 450.985 -1.59881 -1.00416 0
M  V30 4716 O 450.342 -0.790515 -1.6449 0
M  V30 4717 C 450.393 -3.58804 0.440649 0
M  V30 4718 O 450.114 -4.007 1.77118 0
M  V30 4719 C 451.615 -4.43296 0.0186117 0
M  V30 4720 H 448.835 -0.652526 0.156367 0
M  V30 4721 H 451.379 -1.73998 1.07447 0
M  V30 4722 H 449.534 -3.8686 -0.204458 0
M  V30 4723 H 449.948 -4.95309 1.72538 0
M  V30 4724 H 451.422 -5.51887 0.111488 0
M  V30 4725 H 451.899 -4.2684 -1.03461 0
M  V30 4726 H 452.505 -4.20512 0.636395 0
M  V30 4727 N 450.82 -0.546701 -1.47814 0
M  V30 4728 C 451.783 0.196287 -2.28358 0
M  V30 4729 C 452.783 0.852437 -1.36346 0
M  V30 4730 O 453.973 0.709913 -1.59078 0
M  V30 4731 C 451.105 1.28579 -3.15722 0
M  V30 4732 H 452.298 -0.511086 -2.95513 0
M  V30 4733 H 449.851 -0.303248 -1.5333 0
M  V30 4734 H 450.586 2.0259 -2.53235 0
M  V30 4735 H 450.371 0.820229 -3.83425 0
M  V30 4736 H 451.861 1.80793 -3.76435 0
M  V30 4737 N 452.299 1.55045 -0.282633 0
M  V30 4738 C 453.209 2.26491 0.61147 0
M  V30 4739 C 454.225 1.29348 1.16384 0
M  V30 4740 O 455.401 1.62298 1.19253 0
M  V30 4741 C 452.466 2.97779 1.77563 0
M  V30 4742 C 451.527 4.10418 1.25919 0
M  V30 4743 C 450.76 4.78297 2.36786 0
M  V30 4744 O 450.983 4.45426 3.56303 0
M  V30 4745 O 449.917 5.66089 2.04517 0
M  V30 4746 H 453.743 3.03683 0.0324615 0
M  V30 4747 H 451.328 1.49317 -0.0497576 0
M  V30 4748 H 453.21 3.42554 2.45427 0
M  V30 4749 H 451.885 2.23498 2.34159 0
M  V30 4750 H 450.792 3.70082 0.546797 0
M  V30 4751 H 452.125 4.86622 0.738887 0
M  V30 4752 N 453.777 0.010035 1.57597 0
M  V30 4753 C 454.707 -0.976857 2.12084 0
M  V30 4754 C 455.688 -1.35191 1.03235 0
M  V30 4755 O 456.873 -1.43389 1.3097 0
M  V30 4756 C 454.003 -2.26548 2.63236 0
M  V30 4757 C 452.957 -2.03175 3.76701 0
M  V30 4758 C 452.283 -3.38138 4.14206 0
M  V30 4759 C 453.583 -1.38625 5.03568 0
M  V30 4760 H 455.277 -0.523145 2.94794 0
M  V30 4761 H 452.823 -0.250195 1.4181 0
M  V30 4762 H 454.776 -2.95952 2.99984 0
M  V30 4763 H 453.5 -2.74051 1.77661 0
M  V30 4764 H 452.159 -1.36195 3.40362 0
M  V30 4765 H 451.807 -3.83363 3.25641 0
M  V30 4766 H 451.507 -3.23312 4.90656 0
M  V30 4767 H 453.031 -4.08841 4.53521 0
M  V30 4768 H 454.445 -1.98 5.38023 0
M  V30 4769 H 452.842 -1.34256 5.84889 0
M  V30 4770 H 453.912 -0.356722 4.83586 0
M  V30 4771 N 455.255 -1.55392 -0.262866 0
M  V30 4772 C 456.218 -1.88181 -1.30846 0
M  V30 4773 C 457.218 -0.757079 -1.41862 0
M  V30 4774 O 458.408 -1.02519 -1.40838 0
M  V30 4775 C 455.54 -2.09609 -2.68844 0
M  V30 4776 H 456.733 -2.81659 -1.02997 0
M  V30 4777 H 454.286 -1.48039 -0.501414 0
M  V30 4778 H 455.021 -1.18547 -3.01856 0
M  V30 4779 H 454.806 -2.91508 -2.62231 0
M  V30 4780 H 456.296 -2.36215 -3.44372 0
M  V30 4781 N 456.733 0.527833 -1.48498 0
M  V30 4782 C 457.681 1.65313 -1.63628 0
M  V30 4783 C 458.675 1.6177 -0.502676 0
M  V30 4784 O 459.881 1.66601 -0.681469 0
M  V30 4785 H 456.256 0.547518 -0.515488 0
M  V30 4786 H 458.227 1.49696 -2.58135 0
M  V30 4787 C 456.976 3.03576 -1.6952 0
M  V30 4788 H 456.299 3.06997 -2.56111 0
M  V30 4789 H 457.739 3.81923 -1.84149 0
M  V30 4790 C 456.198 3.34089 -0.43432 0
M  V30 4791 O 456.728 3.99151 0.451852 0
M  V30 4792 N 454.934 2.88991 -0.305368 0
M  V30 4793 H 454.481 2.36222 -1.02747 0
M  V30 4794 H 454.439 3.09776 0.537249 0
M  V30 4795 N 458.211 1.37122 0.776871 0
M  V30 4796 C 459.459 1.31787 1.53221 0
M  V30 4797 C 459.78 -0.0987589 1.9475 0
M  V30 4798 O 459.05 -1.0417 1.65908 0
M  V30 4799 H 457.63 0.484839 0.568278 0
M  V30 4800 H 460.292 1.71556 0.924917 0
M  V30 4801 H 459.388 1.95355 2.43398 0
M  V30 4802 N 459.689 -1.00246 1.21608 0
M  V30 4803 C 460.652 -2.07233 0.979133 0
M  V30 4804 C 461.652 -1.6072 -0.0508219 0
M  V30 4805 O 462.842 -1.73196 0.186712 0
M  V30 4806 C 459.974 -3.37546 0.477016 0
M  V30 4807 H 461.167 -2.29687 1.92831 0
M  V30 4808 H 458.72 -1.17261 1.03342 0
M  V30 4809 H 459.455 -3.20773 -0.476966 0
M  V30 4810 H 459.24 -3.72638 1.21997 0
M  V30 4811 H 460.73 -4.16285 0.331181 0
M  V30 4812 N 461.167 -1.02423 -1.1978 0
M  V30 4813 C 462.097 -0.62157 -2.25075 0
M  V30 4814 C 463.078 0.367148 -1.6609 0
M  V30 4815 O 464.263 0.250892 -1.92573 0
M  V30 4816 C 461.393 0.0331826 -3.47284 0
M  V30 4817 C 460.347 -0.877323 -4.18912 0
M  V30 4818 C 459.673 -0.0879296 -5.34628 0
M  V30 4819 C 460.973 -2.18892 -4.74219 0
M  V30 4820 H 462.667 -1.50179 -2.59011 0
M  V30 4821 H 460.213 -0.723547 -1.24502 0
M  V30 4822 H 462.166 0.326488 -4.20133 0
M  V30 4823 H 460.89 0.948164 -3.12534 0
M  V30 4824 H 459.549 -1.15475 -3.47938 0
M  V30 4825 H 459.197 0.828941 -4.96123 0
M  V30 4826 H 458.897 -0.694359 -5.83483 0
M  V30 4827 H 460.421 0.198743 -6.10276 0
M  V30 4828 H 461.835 -1.95746 -5.38847 0
M  V30 4829 H 460.232 -2.74686 -5.33542 0
M  V30 4830 H 461.302 -2.84674 -3.92541 0
M  V30 4831 N 462.645 1.35699 -0.801477 0
M  V30 4832 C 463.893 1.9852 -0.37871 0
M  V30 4833 C 464.214 1.63907 1.05638 0
M  V30 4834 O 463.484 0.919013 1.73006 0
M  V30 4835 H 462.064 0.734322 -0.137042 0
M  V30 4836 H 464.726 1.65697 -1.02619 0
M  V30 4837 H 463.822 3.08382 -0.480284 0
M  V30 4838 N 464.123 0.554532 1.47522 0
M  V30 4839 C 465.056 -0.242442 2.26908 0
M  V30 4840 C 466.034 -0.922722 1.33883 0
M  V30 4841 O 467.218 -0.942244 1.63261 0
M  V30 4842 C 464.345 -1.34525 3.10839 0
M  V30 4843 C 463.391 -0.773805 4.19422 0
M  V30 4844 S 464.224 0.377525 5.34168 0
M  V30 4845 C 465.38 -0.727164 6.21662 0
M  V30 4846 H 465.613 0.431218 2.94156 0
M  V30 4847 H 463.146 0.3408 1.50592 0
M  V30 4848 H 465.104 -1.97683 3.59766 0
M  V30 4849 H 463.765 -1.99073 2.42958 0
M  V30 4850 H 462.958 -1.60187 4.77866 0
M  V30 4851 H 462.56 -0.218448 3.73361 0
M  V30 4852 H 464.852 -1.61992 6.57849 0
M  V30 4853 H 465.795 -0.180135 7.07871 0
M  V30 4854 H 466.203 -1.01863 5.55233 0
M  V30 4855 N 465.601 -1.54893 0.290851 0
M  V30 4856 C 466.85 -1.99111 -0.322113 0
M  V30 4857 C 467.163 -1.18283 -1.55784 0
M  V30 4858 O 468.369 -1.5272 -2.24475 0
M  V30 4859 C 466.825 -3.54442 -0.624438 0
M  V30 4860 C 466.433 -4.44066 0.592373 0
M  V30 4861 C 468.177 -4.07211 -1.19916 0
M  V30 4862 C 466.084 -5.90812 0.263762 0
M  V30 4863 H 465.014 -0.743712 -0.124133 0
M  V30 4864 H 467.665 -1.79132 0.39797 0
M  V30 4865 H 466.047 -3.70281 -1.40384 0
M  V30 4866 H 467.221 -4.39999 1.36886 0
M  V30 4867 H 465.536 -4.02015 1.08502 0
M  V30 4868 H 468.133 -5.14407 -1.45909 0
M  V30 4869 H 468.476 -3.57196 -2.13815 0
M  V30 4870 H 469.009 -3.94873 -0.481687 0
M  V30 4871 H 465.748 -6.44955 1.17105 0
M  V30 4872 H 465.268 -5.97911 -0.475655 0
M  V30 4873 H 466.947 -6.46852 -0.138354 0
M  V30 4874 N 467.08 -0.0183926 -1.57589 0
M  V30 4875 C 467.99 0.982943 -2.13015 0
M  V30 4876 C 469.006 1.36443 -1.07979 0
M  V30 4877 O 470.182 1.44802 -1.3998 0
M  V30 4878 C 467.247 2.25024 -2.63752 0
M  V30 4879 C 466.308 1.93018 -3.83461 0
M  V30 4880 C 465.541 3.13706 -4.31769 0
M  V30 4881 O 465.764 4.2601 -3.79305 0
M  V30 4882 O 464.698 2.96629 -5.23732 0
M  V30 4883 H 468.524 0.541709 -2.9883 0
M  V30 4884 H 466.109 0.201565 -1.48034 0
M  V30 4885 H 467.991 2.99441 -2.96502 0
M  V30 4886 H 466.666 2.68349 -1.81026 0
M  V30 4887 H 465.573 1.16019 -3.55655 0
M  V30 4888 H 466.906 1.54516 -4.67317 0
M  V30 4889 N 468.558 1.5553 0.254621 0
M  V30 4890 C 469.488 1.9268 1.31897 0
M  V30 4891 C 470.469 0.790797 1.506 0
M  V30 4892 O 471.654 1.05045 1.63337 0
M  V30 4893 C 468.784 2.21477 2.67517 0
M  V30 4894 C 467.738 3.37256 2.63519 0
M  V30 4895 C 467.064 3.51576 4.02862 0
M  V30 4896 C 468.364 4.73157 2.21179 0
M  V30 4897 H 470.058 2.81832 1.01051 0
M  V30 4898 H 467.604 1.35599 0.484662 0
M  V30 4899 H 469.557 2.46055 3.42104 0
M  V30 4900 H 468.281 1.29144 2.99982 0
M  V30 4901 H 466.94 3.12675 1.9139 0
M  V30 4902 H 466.588 2.56676 4.32581 0
M  V30 4903 H 466.288 4.2943 4.01078 0
M  V30 4904 H 467.812 3.78467 4.79161 0
M  V30 4905 H 469.226 4.97158 2.85494 0
M  V30 4906 H 467.623 5.54058 2.30521 0
M  V30 4907 H 468.693 4.70739 1.16332 0
M  V30 4908 N 470.036 -0.519951 1.48776 0
M  V30 4909 C 470.984 -1.64443 1.64503 0
M  V30 4910 C 471.978 -1.61501 0.511248 0
M  V30 4911 O 473.184 -1.66238 0.690294 0
M  V30 4912 H 469.559 -0.544776 0.518385 0
M  V30 4913 H 471.53 -1.48325 2.58925 0
M  V30 4914 C 470.279 -3.02673 1.71127 0
M  V30 4915 H 469.602 -3.05635 2.57735 0
M  V30 4916 H 471.042 -3.80941 1.86172 0
M  V30 4917 C 469.501 -3.33854 0.452032 0
M  V30 4918 O 470.031 -3.99385 -0.430678 0
M  V30 4919 N 468.237 -2.88825 0.32069 0
M  V30 4920 H 467.784 -2.35674 1.03998 0
M  V30 4921 H 467.742 -3.10056 -0.520814 0
M  V30 4922 N 471.514 -1.37532 -0.769588 0
M  V30 4923 C 472.791 -1.23392 -1.51768 0
M  V30 4924 C 473.171 0.17157 -2.10402 0
M  V30 4925 O 472.519 1.17943 -1.95708 0
M  V30 4926 C 472.729 -2.33163 -2.59685 0
M  V30 4927 C 474.077 -2.70809 -3.27028 0
M  V30 4928 O 475.101 -2.32355 -2.69981 0
M  V30 4929 O 473.96 -3.37066 -4.30173 0
M  V30 4930 H 471.054 -0.481617 -0.67229 0
M  V30 4931 H 473.6 -1.49318 -0.806368 0
M  V30 4932 H 472.372 -3.27273 -2.14494 0
M  V30 4933 H 471.995 -2.08713 -3.38415 0
M  V30 4934 N 472.992 0.995999 -1.22138 0
M  V30 4935 C 474.269 1.70834 -0.952642 0
M  V30 4936 C 474.649 2.04257 0.533119 0
M  V30 4937 O 473.997 1.72343 1.50034 0
M  V30 4938 C 474.207 2.96119 -1.84701 0
M  V30 4939 C 475.555 3.68962 -2.10124 0
M  V30 4940 O 476.579 3.0612 -1.82124 0
M  V30 4941 O 475.438 4.82017 -2.57531 0
M  V30 4942 H 472.532 0.745498 -0.357997 0
M  V30 4943 H 475.078 1.05262 -1.33109 0
M  V30 4944 H 473.85 2.67898 -2.85213 0
M  V30 4945 H 473.473 3.6943 -1.46995 0
M  V30 4946 N 474.47 1.03057 1.19235 0
M  V30 4947 C 475.7 0.746613 1.92638 0
M  V30 4948 C 476.108 -0.698708 1.75826 0
M  V30 4949 O 475.451 -1.487 1.07861 0
M  V30 4950 C 475.513 1.02024 3.44719 0
M  V30 4951 C 475.177 2.45745 3.85303 0
M  V30 4952 C 476.174 3.43887 3.8992 0
M  V30 4953 C 473.859 2.8019 4.16892 0
M  V30 4954 C 475.853 4.74529 4.2556 0
M  V30 4955 C 473.54 4.1104 4.52205 0
M  V30 4956 C 474.538 5.0802 4.56513 0
M  V30 4957 O 474.226 6.36527 4.91008 0
M  V30 4958 H 473.958 0.272401 0.618687 0
M  V30 4959 H 476.512 1.37853 1.52269 0
M  V30 4960 H 474.742 0.331184 3.85279 0
M  V30 4961 H 476.431 0.725677 3.9936 0
M  V30 4962 H 477.197 3.18614 3.65664 0
M  V30 4963 H 473.076 2.05382 4.12722 0
M  V30 4964 H 476.62 5.50222 4.28838 0
M  V30 4965 H 472.517 4.36086 4.7592 0
M  V30 4966 H 473.285 6.41025 5.08949 0
M  V30 4967 N 475.948 -1.35272 0.808662 0
M  V30 4968 C 477.176 -2.02946 0.402537 0
M  V30 4969 C 477.591 -1.60937 -0.987147 0
M  V30 4970 O 476.948 -0.807917 -1.63643 0
M  V30 4971 C 476.999 -3.58317 0.47868 0
M  V30 4972 O 476.72 -3.98799 1.81358 0
M  V30 4973 C 478.221 -4.43251 0.0656281 0
M  V30 4974 H 475.441 -0.650831 0.163279 0
M  V30 4975 H 477.985 -1.72849 1.09286 0
M  V30 4976 H 476.14 -3.87055 -0.163415 0
M  V30 4977 H 476.554 -4.93451 1.77781 0
M  V30 4978 H 478.028 -5.51738 0.170017 0
M  V30 4979 H 478.505 -4.27913 -0.989278 0
M  V30 4980 H 479.111 -4.19813 0.68096 0
M  V30 4981 N 477.426 -0.562348 -1.47226 0
M  V30 4982 C 478.356 0.170627 -2.32876 0
M  V30 4983 C 479.337 0.903748 -1.44106 0
M  V30 4984 O 480.522 0.883206 -1.72954 0
M  V30 4985 C 477.652 1.19786 -3.25989 0
M  V30 4986 C 476.606 0.580875 -4.2404 0
M  V30 4987 C 475.932 1.71311 -5.06514 0
M  V30 4988 C 477.232 -0.468714 -5.20193 0
M  V30 4989 H 478.926 -0.544441 -2.94408 0
M  V30 4990 H 476.472 -0.263271 -1.41573 0
M  V30 4991 H 478.425 1.71884 -3.84752 0
M  V30 4992 H 477.149 1.94294 -2.62521 0
M  V30 4993 H 475.808 0.0811538 -3.6651 0
M  V30 4994 H 475.456 2.44736 -4.39447 0
M  V30 4995 H 475.156 1.30604 -5.72902 0
M  V30 4996 H 476.68 2.23725 -5.68137 0
M  V30 4997 H 478.094 -0.0336028 -5.7329 0
M  V30 4998 H 476.491 -0.794957 -5.94811 0
M  V30 4999 H 477.561 -1.36269 -4.65359 0
M  V30 5000 N 478.904 1.54736 -0.299062 0
M  V30 5001 C 479.851 2.23448 0.577899 0
M  V30 5002 C 480.821 1.21637 1.13109 0
M  V30 5003 O 482.006 1.50252 1.17597 0
M  V30 5004 C 479.146 2.9774 1.74484 0
M  V30 5005 C 478.259 4.1432 1.22323 0
M  V30 5006 C 477.394 4.76199 2.35388 0
M  V30 5007 C 476.433 5.84927 1.80351 0
M  V30 5008 N 475.57 6.4077 2.86982 0
M  V30 5009 H 480.41 2.97996 -0.0146545 0
M  V30 5010 H 477.947 1.47088 -0.0190013 0
M  V30 5011 H 479.905 3.39045 2.43114 0
M  V30 5012 H 478.535 2.25572 2.30905 0
M  V30 5013 H 477.587 3.7797 0.429249 0
M  V30 5014 H 478.899 4.92659 0.780309 0
M  V30 5015 H 478.053 5.20346 3.11969 0
M  V30 5016 H 476.792 3.97188 2.83006 0
M  V30 5017 H 475.797 5.40207 1.02259 0
M  V30 5018 H 477.022 6.65821 1.3364 0
M  V30 5019 H 474.968 5.64643 3.33938 0
M  V30 5020 H 474.885 7.1445 2.4718 0
M  V30 5021 H 476.153 6.89574 3.63466 0
M  V30 5022 N 480.382 0.0267497 1.57577 0
M  V30 5023 C 481.329 -0.955894 2.10075 0
M  V30 5024 C 482.299 -1.32453 1.00226 0
M  V30 5025 O 483.484 -1.41826 1.27632 0
M  V30 5026 C 480.624 -2.2338 2.6305 0
M  V30 5027 C 479.737 -1.92183 3.86898 0
M  V30 5028 C 478.872 -3.14251 4.28275 0
M  V30 5029 C 477.911 -2.78862 5.44888 0
M  V30 5030 N 477.048 -3.93548 5.81433 0
M  V30 5031 H 481.888 -0.501303 2.93753 0
M  V30 5032 H 479.425 -0.235847 1.45197 0
M  V30 5033 H 481.383 -2.98124 2.91853 0
M  V30 5034 H 480.013 -2.6646 1.82205 0
M  V30 5035 H 479.065 -1.07692 3.64838 0
M  V30 5036 H 480.377 -1.62117 4.7172 0
M  V30 5037 H 479.531 -3.97317 4.58502 0
M  V30 5038 H 478.27 -3.47476 3.42215 0
M  V30 5039 H 477.275 -1.94208 5.14357 0
M  V30 5040 H 478.5 -2.46855 6.32645 0
M  V30 5041 H 476.446 -4.2662 4.98328 0
M  V30 5042 H 476.363 -3.67098 6.6089 0
M  V30 5043 H 477.631 -4.77325 6.16264 0
M  V30 5044 N 481.861 -1.55662 -0.24637 0
M  V30 5045 C 483.107 -1.77782 -0.975779 0
M  V30 5046 C 483.44 -0.592103 -1.84953 0
M  V30 5047 O 482.715 0.409588 -1.90138 0
M  V30 5048 C 482.998 -3.09788 -1.83584 0
M  V30 5049 C 482.851 -4.38764 -0.990241 0
M  V30 5050 C 484.17 -3.38029 -2.81823 0
M  V30 5051 H 481.289 -0.646789 -0.353317 0
M  V30 5052 H 483.931 -1.88398 -0.246248 0
M  V30 5053 H 482.081 -3.00869 -2.45784 0
M  V30 5054 H 483.753 -4.59675 -0.386897 0
M  V30 5055 H 481.996 -4.32798 -0.294626 0
M  V30 5056 H 482.667 -5.27514 -1.62584 0
M  V30 5057 H 485.143 -3.46915 -2.2976 0
M  V30 5058 H 484.019 -4.3161 -3.39122 0
M  V30 5059 H 484.28 -2.58968 -3.58313 0
M  V30 5060 N 483.339 0.512053 -1.4905 0
M  V30 5061 C 484.272 1.63209 -1.59493 0
M  V30 5062 C 485.25 1.56407 -0.444481 0
M  V30 5063 O 486.434 1.76623 -0.658535 0
M  V30 5064 C 483.561 3.01685 -1.53961 0
M  V30 5065 C 482.607 3.26786 -2.74068 0
M  V30 5066 S 483.44 3.11107 -4.35859 0
M  V30 5067 C 484.596 4.51997 -4.32954 0
M  V30 5068 H 484.829 1.54104 -2.54243 0
M  V30 5069 H 482.362 0.696382 -1.37804 0
M  V30 5070 H 484.32 3.81538 -1.51455 0
M  V30 5071 H 482.981 3.08215 -0.605178 0
M  V30 5072 H 482.174 4.27849 -2.66386 0
M  V30 5073 H 481.776 2.54635 -2.73928 0
M  V30 5074 H 484.068 5.43871 -4.03993 0
M  V30 5075 H 485.011 4.64731 -5.34257 0
M  V30 5076 H 485.419 4.32159 -3.63178 0
M  V30 5077 N 484.817 1.37938 0.762283 0
M  V30 5078 C 485.764 1.34467 1.87583 0
M  V30 5079 C 486.734 0.208633 1.64785 0
M  V30 5080 O 487.919 0.399494 1.86571 0
M  V30 5081 C 485.059 1.16692 3.24772 0
M  V30 5082 C 484.172 2.39608 3.59461 0
M  V30 5083 C 483.307 2.14631 4.85908 0
M  V30 5084 C 482.346 3.33364 5.13357 0
M  V30 5085 N 481.483 3.07877 6.30996 0
M  V30 5086 H 486.323 2.29669 1.89885 0
M  V30 5087 H 483.86 1.14116 0.928219 0
M  V30 5088 H 485.818 1.04405 4.03925 0
M  V30 5089 H 484.448 0.251333 3.2182 0
M  V30 5090 H 483.5 2.626 2.75219 0
M  V30 5091 H 484.812 3.28128 3.75678 0
M  V30 5092 H 483.966 1.99429 5.72986 0
M  V30 5093 H 482.705 1.23463 4.71814 0
M  V30 5094 H 481.71 3.49094 4.24751 0
M  V30 5095 H 482.935 4.25395 5.29354 0
M  V30 5096 H 480.881 2.19348 6.18241 0
M  V30 5097 H 480.798 3.89944 6.47673 0
M  V30 5098 H 482.066 2.96313 7.20985 0
M  V30 5099 N 486.295 -0.989507 1.22664 0
M  V30 5100 C 487.706 -1.54406 1.04955 0
M  V30 5101 C 488.057 -1.92366 -0.385951 0
M  V30 5102 O 487.182 -1.75111 -1.27142 0
M  V30 5103 C 487.777 -2.80578 1.89899 0
M  V30 5104 C 486.336 -3.32464 1.76478 0
M  V30 5105 C 485.483 -2.05524 1.86159 0
M  V30 5106 H 488.434 -0.810211 1.3646 0
M  V30 5107 H 488.455 -3.53075 1.4184 0
M  V30 5108 H 487.967 -2.52918 2.94371 0
M  V30 5109 H 486.068 -3.65024 0.747528 0
M  V30 5110 H 486.181 -4.02838 2.59342 0
M  V30 5111 H 484.545 -2.19241 1.29636 0
M  V30 5112 H 485.328 -1.80258 2.92168 0
M  V30 5113 N 487.773 -1.03688 -1.18687 0
M  V30 5114 C 488.703 -0.645407 -2.24403 0
M  V30 5115 C 489.684 0.349511 -1.66471 0
M  V30 5116 O 490.869 0.230453 -1.92828 0
M  V30 5117 C 487.999 -0.00365337 -3.473 0
M  V30 5118 C 486.953 -0.921705 -4.17958 0
M  V30 5119 C 486.279 -0.144629 -5.34504 0
M  V30 5120 C 487.579 -2.23909 -4.71871 0
M  V30 5121 H 489.273 -1.52917 -2.57404 0
M  V30 5122 H 486.819 -0.736711 -1.23728 0
M  V30 5123 H 488.772 0.281908 -4.20456 0
M  V30 5124 H 487.496 0.914963 -3.13522 0
M  V30 5125 H 486.155 -1.19159 -3.46694 0
M  V30 5126 H 485.803 0.776274 -4.96974 0
M  V30 5127 H 485.503 -0.756206 -5.82714 0
M  V30 5128 H 487.027 0.134004 -6.10453 0
M  V30 5129 H 488.441 -2.0145 -5.36741 0
M  V30 5130 H 486.838 -2.8033 -5.30599 0
M  V30 5131 H 487.908 -2.88822 -3.895 0
M  V30 5132 N 489.251 1.34841 -0.815825 0
M  V30 5133 C 490.5 1.97755 -0.396976 0
M  V30 5134 C 490.813 1.65422 1.04379 0
M  V30 5135 O 492.019 2.21771 1.5662 0
M  V30 5136 C 490.475 3.53818 -0.658869 0
M  V30 5137 C 490.083 3.95051 -2.11278 0
M  V30 5138 C 491.827 4.23397 -0.305834 0
M  V30 5139 C 489.734 5.43997 -2.31994 0
M  V30 5140 H 488.664 0.739985 -0.1447 0
M  V30 5141 H 491.315 1.53781 -1.00118 0
M  V30 5142 H 489.697 3.95997 0.0154112 0
M  V30 5143 H 490.871 3.63998 -2.82564 0
M  V30 5144 H 489.186 3.38388 -2.42657 0
M  V30 5145 H 491.783 5.32899 -0.43854 0
M  V30 5146 H 492.126 4.09508 0.748952 0
M  V30 5147 H 492.659 3.8667 -0.934403 0
M  V30 5148 H 489.398 5.62865 -3.35952 0
M  V30 5149 H 488.918 5.76589 -1.65244 0
M  V30 5150 H 490.597 6.10584 -2.14001 0
M  V30 5151 N 490.729 0.570148 1.46925 0
M  V30 5152 C 491.692 -0.159933 2.28641 0
M  V30 5153 C 492.692 -0.830638 1.37685 0
M  V30 5154 O 493.882 -0.684516 1.60187 0
M  V30 5155 C 491.014 -1.2354 3.17727 0
M  V30 5156 H 492.207 0.558035 2.94662 0
M  V30 5157 H 489.76 0.327603 1.52828 0
M  V30 5158 H 490.495 -1.98535 2.56426 0
M  V30 5159 H 490.28 -0.759125 3.84681 0
M  V30 5160 H 491.77 -1.74782 3.79264 0
M  V30 5161 N 492.207 -1.54576 0.307264 0
M  V30 5162 C 493.432 -2.05139 -0.305379 0
M  V30 5163 C 493.857 -1.18278 -1.46259 0
M  V30 5164 O 493.215 -0.188243 -1.8032 0
M  V30 5165 C 493.263 -3.53066 -0.733283 0
M  V30 5166 O 492.367 -3.69206 -1.83741 0
M  V30 5167 H 491.708 -0.661444 -0.0582105 0
M  V30 5168 H 494.238 -1.99569 0.450931 0
M  V30 5169 H 494.248 -3.95034 -1.02039 0
M  V30 5170 H 492.923 -4.15746 0.113198 0
M  V30 5171 H 491.5 -3.39143 -1.55037 0
M  V30 5172 N 493.685 -0.035106 -1.57561 0
M  V30 5173 C 494.633 0.962707 -2.11742 0
M  V30 5174 C 495.627 1.33296 -1.0454 0
M  V30 5175 O 496.833 1.31449 -1.22968 0
M  V30 5176 H 493.208 0.32826 -0.676572 0
M  V30 5177 H 495.179 0.48048 -2.94506 0
M  V30 5178 C 493.928 2.23388 -2.66445 0
M  V30 5179 H 493.251 1.95774 -3.48587 0
M  V30 5180 H 494.691 2.91402 -3.07995 0
M  V30 5181 C 493.15 2.96769 -1.59467 0
M  V30 5182 O 493.68 3.89105 -0.998 0
M  V30 5183 N 491.886 2.59212 -1.31369 0
M  V30 5184 H 491.433 1.84202 -1.80076 0
M  V30 5185 H 491.391 3.08618 -0.600173 0
M  V30 5186 N 495.163 1.55791 0.238111 0
M  V30 5187 C 496.391 1.82098 0.982233 0
M  V30 5188 C 496.806 0.612025 1.78605 0
M  V30 5189 O 496.163 -0.419381 1.77616 0
M  V30 5190 C 496.214 3.0673 1.91309 0
M  V30 5191 O 495.935 4.2296 1.14179 0
M  V30 5192 C 497.436 3.45903 2.77248 0
M  V30 5193 H 494.656 0.605748 0.288635 0
M  V30 5194 H 497.2 2.02862 0.258341 0
M  V30 5195 H 495.355 2.87991 2.59114 0
M  V30 5196 H 495.769 4.93653 1.7722 0
M  V30 5197 H 497.243 4.36189 3.38295 0
M  V30 5198 H 497.72 2.66891 3.48806 0
M  V30 5199 H 498.326 3.67024 2.14881 0
M  V30 5200 N 496.642 -0.504142 1.49319 0
M  V30 5201 C 497.888 -1.26033 1.58882 0
M  V30 5202 C 498.221 -1.92268 0.273274 0
M  V30 5203 O 497.496 -1.80567 -0.72291 0
M  V30 5204 C 497.779 -2.32976 2.7458 0
M  V30 5205 C 497.632 -1.71263 4.1592 0
M  V30 5206 C 498.951 -3.34561 2.85932 0
M  V30 5207 H 496.07 -0.456863 0.578312 0
M  V30 5208 H 498.712 -0.558965 1.81592 0
M  V30 5209 H 496.862 -2.92796 2.55348 0
M  V30 5210 H 498.534 -1.15294 4.4666 0
M  V30 5211 H 496.777 -1.01686 4.21714 0
M  V30 5212 H 497.448 -2.48816 4.92742 0
M  V30 5213 H 499.924 -2.84727 3.0343 0
M  V30 5214 H 498.8 -4.06754 3.68568 0
M  V30 5215 H 499.061 -3.96695 1.95154 0
M  V30 5216 N 498.12 -1.38341 -0.754957 0
M  V30 5217 C 499.348 -1.37704 -1.54419 0
M  V30 5218 C 499.763 0.0335243 -1.8877 0
M  V30 5219 O 499.12 0.999773 -1.52679 0
M  V30 5220 C 499.171 -2.23136 -2.84416 0
M  V30 5221 O 498.892 -3.58697 -2.51531 0
M  V30 5222 C 500.393 -2.30664 -3.78562 0
M  V30 5223 H 497.613 -0.471061 -0.477852 0
M  V30 5224 H 500.157 -1.81902 -0.934446 0
M  V30 5225 H 498.312 -1.82403 -3.41772 0
M  V30 5226 H 498.726 -4.03665 -3.34896 0
M  V30 5227 H 500.2 -2.9473 -4.66732 0
M  V30 5228 H 500.677 -1.3199 -4.18898 0
M  V30 5229 H 501.283 -2.71781 -3.27131 0
M  V30 5230 N 499.598 0.982988 -1.23187 0
M  V30 5231 C 500.875 1.69814 -0.970707 0
M  V30 5232 C 501.255 2.04811 0.511424 0
M  V30 5233 O 500.603 1.73924 1.48198 0
M  V30 5234 C 500.813 2.94143 -1.87831 0
M  V30 5235 C 502.161 3.66712 -2.14026 0
M  V30 5236 O 503.185 3.04171 -1.8536 0
M  V30 5237 O 502.044 4.79258 -2.62629 0
M  V30 5238 H 499.138 0.741659 -0.365884 0
M  V30 5239 H 501.684 1.03844 -1.34218 0
M  V30 5240 H 500.456 2.64858 -2.88038 0
M  V30 5241 H 500.079 3.6785 -1.50905 0
M  V30 5242 N 501.076 1.04316 1.18135 0
M  V30 5243 C 501.986 0.646876 2.25505 0
M  V30 5244 C 503.002 -0.328008 1.7088 0
M  V30 5245 O 504.178 -0.182309 2.00573 0
M  V30 5246 C 501.243 0.0185664 3.46695 0
M  V30 5247 C 500.304 1.04277 4.16443 0
M  V30 5248 C 499.537 0.444352 5.31847 0
M  V30 5249 O 499.76 -0.748735 5.65465 0
M  V30 5250 O 498.694 1.17428 5.90334 0
M  V30 5251 H 502.52 1.54147 2.61672 0
M  V30 5252 H 500.105 0.814188 1.25265 0
M  V30 5253 H 501.987 -0.331068 4.20097 0
M  V30 5254 H 500.662 -0.849814 3.12346 0
M  V30 5255 H 499.569 1.44425 3.45098 0
M  V30 5256 H 500.902 1.882 4.54798 0
M  V30 5257 N 502.554 -1.34406 0.822964 0
M  V30 5258 C 503.803 -1.97542 0.407458 0
M  V30 5259 C 504.116 -1.65973 -1.035 0
M  V30 5260 O 505.322 -2.22598 -1.55442 0
M  V30 5261 C 503.778 -3.53463 0.677623 0
M  V30 5262 C 503.386 -3.93925 2.1337 0
M  V30 5263 C 505.13 -4.23229 0.328284 0
M  V30 5264 C 503.037 -5.42759 2.34876 0
M  V30 5265 H 501.967 -0.739207 0.148623 0
M  V30 5266 H 504.618 -1.53248 1.00932 0
M  V30 5267 H 503 -3.96 0.00558965 0
M  V30 5268 H 504.174 -3.62494 2.8449 0
M  V30 5269 H 502.489 -3.37097 2.44448 0
M  V30 5270 H 505.086 -5.32659 0.466794 0
M  V30 5271 H 505.429 -4.09899 -0.727224 0
M  V30 5272 H 505.962 -3.86169 0.954896 0
M  V30 5273 H 502.701 -5.61075 3.38932 0
M  V30 5274 H 502.221 -5.75704 1.68299 0
M  V30 5275 H 503.9 -6.0944 2.17236 0
M  V30 5276 N 504.032 -0.577932 -1.46621 0
M  V30 5277 C 504.942 0.160651 -2.34049 0
M  V30 5278 C 505.958 0.890911 -1.49462 0
M  V30 5279 O 507.134 0.855166 -1.82343 0
M  V30 5280 C 504.199 1.16447 -3.26559 0
M  V30 5281 C 503.26 0.4394 -4.27045 0
M  V30 5282 C 502.493 1.3954 -5.15135 0
M  V30 5283 O 502.716 2.63162 -5.06065 0
M  V30 5284 O 501.65 0.908585 -5.95003 0
M  V30 5285 H 505.476 -0.557057 -2.98547 0
M  V30 5286 H 503.061 -0.338369 -1.45518 0
M  V30 5287 H 504.943 1.7434 -3.83645 0
M  V30 5288 H 503.618 1.86373 -2.64663 0
M  V30 5289 H 502.525 -0.181247 -3.73661 0
M  V30 5290 H 503.858 -0.218799 -4.91713 0
M  V30 5291 N 505.51 1.54411 -0.315457 0
M  V30 5292 C 506.926 1.59556 0.037464 0
M  V30 5293 C 507.126 1.33217 1.5118 0
M  V30 5294 O 506.182 1.11264 2.26664 0
M  V30 5295 C 507.495 2.98372 -0.373477 0
M  V30 5296 C 509.043 3.11324 -0.323452 0
M  V30 5297 C 509.518 4.52472 -0.709433 0
M  V30 5298 N 511.009 4.58437 -0.662524 0
M  V30 5299 C 511.744 5.65751 -0.933474 0
M  V30 5300 N 511.24 6.81039 -1.27114 0
M  V30 5301 N 513.033 5.55489 -0.859573 0
M  V30 5302 H 505.184 1.6979 -1.27614 0
M  V30 5303 H 507.447 0.793732 -0.518356 0
M  V30 5304 H 507.153 3.22618 -1.40037 0
M  V30 5305 H 507.027 3.76264 0.265615 0
M  V30 5306 H 509.414 2.86818 0.694223 0
M  V30 5307 H 509.495 2.35555 -0.997367 0
M  V30 5308 H 509.139 4.7771 -1.72498 0
M  V30 5309 H 509.069 5.26598 -0.0132923 0
M  V30 5310 H 511.56 3.75636 -0.413065 0
M  V30 5311 H 511.873 7.58816 -1.46348 0
M  V30 5312 H 510.218 6.82555 -1.30932 0
M  V30 5313 H 513.409 4.64299 -0.595324 0
M  V30 5314 H 513.582 6.39036 -1.0741 0
M  V30 5315 N 506.988 0.0434614 1.5754 0
M  V30 5316 C 507.951 -0.918696 2.09982 0
M  V30 5317 C 508.951 -1.24488 1.01781 0
M  V30 5318 O 510.141 -1.18284 1.27885 0
M  V30 5319 C 507.273 -2.23093 2.57764 0
M  V30 5320 H 508.466 -0.464229 2.96285 0
M  V30 5321 H 506.019 -0.204818 1.54952 0
M  V30 5322 H 506.754 -2.73137 1.74832 0
M  V30 5323 H 506.539 -2.00724 3.36827 0
M  V30 5324 H 508.029 -2.92028 2.98512 0
M  V30 5325 N 508.466 -1.55915 -0.229846 0
M  V30 5326 C 509.414 -1.9258 -1.30444 0
M  V30 5327 C 510.408 -0.806839 -1.48951 0
M  V30 5328 O 511.614 -0.991606 -1.50224 0
M  V30 5329 H 507.989 -0.611878 -0.437161 0
M  V30 5330 H 509.96 -2.82264 -0.96797 0
M  V30 5331 C 508.709 -2.25171 -2.6494 0
M  V30 5332 H 508.032 -3.10782 -2.51504 0
M  V30 5333 H 509.472 -2.54716 -3.38963 0
M  V30 5334 C 507.931 -1.07394 -3.19324 0
M  V30 5335 O 508.461 -0.330759 -4.00336 0
M  V30 5336 N 506.667 -0.859984 -2.77584 0
M  V30 5337 H 506.214 -1.46605 -2.11813 0
M  V30 5338 H 506.172 -0.0736671 -3.14314 0
M  V30 5339 N 509.944 0.496216 -1.49584 0
M  V30 5340 C 511.19 1.25189 -1.59548 0
M  V30 5341 C 511.523 1.9212 -0.283466 0
M  V30 5342 O 510.798 1.80947 0.713324 0
M  V30 5343 C 511.081 2.31516 -2.75812 0
M  V30 5344 C 510.934 1.69054 -4.16822 0
M  V30 5345 C 512.253 3.3304 -2.87702 0
M  V30 5346 H 509.372 0.45379 -0.580727 0
M  V30 5347 H 512.014 0.549327 -1.81886 0
M  V30 5348 H 510.164 2.91438 -2.56897 0
M  V30 5349 H 511.836 1.12923 -4.47265 0
M  V30 5350 H 510.079 0.994485 -4.22247 0
M  V30 5351 H 510.75 2.462 -4.94054 0
M  V30 5352 H 513.226 2.83114 -3.04936 0
M  V30 5353 H 512.102 4.04794 -3.7072 0
M  V30 5354 H 512.363 3.95655 -1.97255 0
M  V30 5355 N 511.423 1.38739 0.74761 0
M  V30 5356 C 512.67 1.35274 1.50689 0
M  V30 5357 C 512.998 -0.0553359 1.94421 0
M  V30 5358 O 512.253 -1.03365 1.66175 0
M  V30 5359 C 512.552 2.25992 2.7688 0
M  V30 5360 C 512.218 3.73854 2.5208 0
M  V30 5361 C 510.88 4.14145 2.45025 0
M  V30 5362 C 513.232 4.67427 2.30568 0
M  V30 5363 C 510.56 5.4609 2.14483 0
M  V30 5364 C 512.912 5.99635 2.01545 0
M  V30 5365 C 511.576 6.39004 1.92951 0
M  V30 5366 H 510.846 0.495003 0.55141 0
M  V30 5367 H 513.493 1.71145 0.859158 0
M  V30 5368 H 511.798 1.83196 3.46333 0
M  V30 5369 H 513.495 2.20611 3.34861 0
M  V30 5370 H 510.085 3.41913 2.58444 0
M  V30 5371 H 514.269 4.3714 2.34994 0
M  V30 5372 H 509.525 5.75528 2.06342 0
M  V30 5373 H 513.699 6.71678 1.83906 0
M  V30 5374 H 511.326 7.41165 1.6905 0
M  V30 5375 N 512.901 -0.976442 1.23707 0
M  V30 5376 C 513.848 -2.06952 1.02174 0
M  V30 5377 C 514.818 -1.65984 -0.0621034 0
M  V30 5378 O 516.003 -1.90584 0.0907906 0
M  V30 5379 C 513.143 -3.39425 0.62327 0
M  V30 5380 C 512.256 -3.9364 1.77966 0
M  V30 5381 C 511.391 -5.14343 1.3276 0
M  V30 5382 C 510.43 -5.60733 2.45449 0
M  V30 5383 N 509.567 -6.72662 2.01172 0
M  V30 5384 H 514.407 -2.24704 1.95734 0
M  V30 5385 H 511.944 -1.10143 0.975034 0
M  V30 5386 H 513.902 -4.15526 0.37332 0
M  V30 5387 H 512.532 -3.21624 -0.275329 0
M  V30 5388 H 511.584 -3.14258 2.14351 0
M  V30 5389 H 512.896 -4.24035 2.62671 0
M  V30 5390 H 512.05 -5.97789 1.03601 0
M  V30 5391 H 510.789 -4.8561 0.450975 0
M  V30 5392 H 509.794 -4.75865 2.75378 0
M  V30 5393 H 511.019 -5.91483 3.33654 0
M  V30 5394 H 508.965 -6.45681 1.15895 0
M  V30 5395 H 508.882 -7.02462 2.79434 0
M  V30 5396 H 510.15 -7.59572 1.75129 0
M  V30 5397 N 514.379 -1.04941 -1.1758 0
M  V30 5398 C 515.312 -0.592518 -2.20373 0
M  V30 5399 C 516.29 0.377561 -1.58156 0
M  V30 5400 O 517.474 0.28978 -1.86259 0
M  V30 5401 C 514.601 0.133215 -3.38438 0
M  V30 5402 C 513.647 -0.791484 -4.19092 0
M  V30 5403 S 514.48 -2.27925 -4.84572 0
M  V30 5404 C 515.636 -1.56462 -6.06028 0
M  V30 5405 H 515.869 -1.46342 -2.58788 0
M  V30 5406 H 513.402 -0.861148 -1.28155 0
M  V30 5407 H 515.36 0.545746 -4.06856 0
M  V30 5408 H 514.021 0.980124 -2.98416 0
M  V30 5409 H 513.214 -0.230039 -5.03475 0
M  V30 5410 H 512.816 -1.14326 -3.56098 0
M  V30 5411 H 515.108 -0.862539 -6.71987 0
M  V30 5412 H 516.051 -2.38583 -6.66696 0
M  V30 5413 H 516.459 -1.05313 -5.5459 0
M  V30 5414 N 515.857 1.33968 -0.830081 0
M  V30 5415 C 516.805 2.31301 -0.245435 0
M  V30 5416 C 517.799 1.57734 0.617762 0
M  V30 5417 O 519.005 1.72674 0.508303 0
M  V30 5418 H 515.38 0.749552 -0.0606316 0
M  V30 5419 H 517.351 2.78129 -1.08105 0
M  V30 5420 C 516.1 3.42961 0.572084 0
M  V30 5421 H 515.423 3.99714 -0.0828118 0
M  V30 5422 H 516.863 4.13286 0.94715 0
M  V30 5423 C 515.322 2.88043 1.74737 0
M  V30 5424 O 515.852 2.83508 2.8458 0
M  V30 5425 N 514.058 2.44768 1.56642 0
M  V30 5426 H 513.605 2.48656 0.672901 0
M  V30 5427 H 513.563 2.08375 2.3543 0
M  V30 5428 N 517.335 0.585699 1.46312 0
M  V30 5429 C 518.583 0.072278 2.01971 0
M  V30 5430 C 518.904 -1.29345 1.45928 0
M  V30 5431 O 518.174 -1.84973 0.645109 0
M  V30 5432 H 516.754 0.023729 0.746623 0
M  V30 5433 H 519.416 0.762155 1.7938 0
M  V30 5434 H 518.512 0.00552767 3.121 0
M  V30 5435 N 518.813 -1.54241 0.323641 0
M  V30 5436 C 519.76 -2.24339 -0.542277 0
M  V30 5437 C 520.73 -1.23421 -1.11159 0
M  V30 5438 O 521.915 -1.52104 -1.15192 0
M  V30 5439 C 519.055 -3.00479 -1.69725 0
M  V30 5440 C 518.168 -4.16214 -1.15716 0
M  V30 5441 C 517.303 -4.79884 -2.27783 0
M  V30 5442 C 516.342 -5.87722 -1.71023 0
M  V30 5443 N 515.479 -6.45254 -2.76752 0
M  V30 5444 H 520.319 -2.97935 0.0620613 0
M  V30 5445 H 517.856 -1.47039 0.0423993 0
M  V30 5446 H 519.814 -3.42869 -2.3769 0
M  V30 5447 H 518.444 -2.29217 -2.27288 0
M  V30 5448 H 517.496 -3.78605 -0.369063 0
M  V30 5449 H 518.808 -4.93838 -0.701832 0
M  V30 5450 H 517.962 -5.25243 -3.03651 0
M  V30 5451 H 516.701 -4.01641 -2.76652 0
M  V30 5452 H 515.706 -5.41765 -0.936518 0
M  V30 5453 H 516.931 -6.67863 -1.2303 0
M  V30 5454 H 514.877 -5.69884 -3.24912 0
M  V30 5455 H 514.794 -7.18292 -2.35782 0
M  V30 5456 H 516.062 -6.95269 -3.5245 0
M  V30 5457 N 520.291 -0.0518155 -1.57515 0
M  V30 5458 C 521.537 0.616839 -1.93821 0
M  V30 5459 C 521.892 1.68413 -0.930307 0
M  V30 5460 O 521.185 1.91534 0.0504231 0
M  V30 5461 C 521.379 1.25607 -3.34601 0
M  V30 5462 C 521.208 0.252222 -4.48992 0
M  V30 5463 C 519.978 -0.156031 -5.05059 0
M  V30 5464 C 522.176 -0.502613 -5.11838 0
M  V30 5465 N 520.158 -1.15267 -6.02981 0
M  V30 5466 C 521.529 -1.35232 -6.05072 0
M  V30 5467 C 523.584 -0.560855 -4.94731 0
M  V30 5468 C 522.287 -2.25505 -6.83037 0
M  V30 5469 C 524.313 -1.45102 -5.73323 0
M  V30 5470 C 523.675 -2.28845 -6.6619 0
M  V30 5471 H 519.774 0.197344 -0.75669 0
M  V30 5472 H 522.358 -0.124297 -1.94303 0
M  V30 5473 H 520.529 1.96723 -3.34895 0
M  V30 5474 H 522.261 1.88358 -3.58195 0
M  V30 5475 H 519.016 0.22306 -4.73074 0
M  V30 5476 H 519.44 -1.64791 -6.56638 0
M  V30 5477 H 524.082 0.0723639 -4.22738 0
M  V30 5478 H 521.8 -2.89872 -7.54321 0
M  V30 5479 H 525.386 -1.50066 -5.62113 0
M  V30 5480 H 524.266 -2.96608 -7.25943 0
M  V30 5481 N 521.769 1.56035 0.221574 0
M  V30 5482 C 522.999 1.82864 0.961468 0
M  V30 5483 C 523.407 0.628703 1.78449 0
M  V30 5484 O 522.75 -0.412109 1.79018 0
M  V30 5485 C 522.812 3.03425 1.92804 0
M  V30 5486 C 522.476 4.38429 1.28954 0
M  V30 5487 C 523.473 5.15441 0.679431 0
M  V30 5488 C 521.158 4.85151 1.30131 0
M  V30 5489 C 523.152 6.37337 0.0896148 0
M  V30 5490 C 520.839 6.06989 0.707651 0
M  V30 5491 C 521.837 6.82923 0.102855 0
M  V30 5492 O 521.525 8.02456 -0.48157 0
M  V30 5493 H 521.257 0.611883 0.28736 0
M  V30 5494 H 523.811 2.0397 0.241932 0
M  V30 5495 H 522.041 2.78138 2.68656 0
M  V30 5496 H 523.73 3.17127 2.53348 0
M  V30 5497 H 524.496 4.80452 0.662661 0
M  V30 5498 H 520.375 4.26021 1.76145 0
M  V30 5499 H 523.919 6.96547 -0.383069 0
M  V30 5500 H 519.816 6.41451 0.721834 0
M  V30 5501 H 520.584 8.17636 -0.375887 0
M  V30 5502 N 523.247 -0.488276 1.49845 0
M  V30 5503 C 524.177 -1.59675 1.70371 0
M  V30 5504 C 525.158 -1.60878 0.552473 0
M  V30 5505 O 526.343 -1.77417 0.78973 0
M  V30 5506 C 523.473 -2.98098 1.782 0
M  V30 5507 C 522.427 -3.11761 2.93239 0
M  V30 5508 C 521.753 -4.51661 2.86193 0
M  V30 5509 C 523.053 -2.90589 4.33999 0
M  V30 5510 H 524.747 -1.42752 2.63177 0
M  V30 5511 H 522.293 -0.685317 1.26647 0
M  V30 5512 H 524.246 -3.75555 1.91144 0
M  V30 5513 H 522.97 -3.16138 0.820018 0
M  V30 5514 H 521.629 -2.36732 2.79917 0
M  V30 5515 H 521.277 -4.66595 1.87877 0
M  V30 5516 H 520.977 -4.61742 3.63412 0
M  V30 5517 H 522.501 -5.31162 3.01163 0
M  V30 5518 H 523.915 -3.57807 4.47936 0
M  V30 5519 H 522.312 -3.1213 5.12538 0
M  V30 5520 H 523.382 -1.86595 4.4756 0
M  V30 5521 N 524.725 -1.39134 -0.740242 0
M  V30 5522 C 525.972 -1.36071 -1.49969 0
M  V30 5523 C 526.3 0.0450245 -1.94448 0
M  V30 5524 O 525.555 1.02482 -1.66721 0
M  V30 5525 C 525.854 -2.27457 -2.75678 0
M  V30 5526 C 525.52 -3.75185 -2.50094 0
M  V30 5527 C 524.182 -4.15439 -2.42825 0
M  V30 5528 C 526.534 -4.68643 -2.28086 0
M  V30 5529 C 523.862 -5.4722 -2.11584 0
M  V30 5530 C 526.214 -6.00695 -1.98363 0
M  V30 5531 C 524.878 -6.40018 -1.8956 0
M  V30 5532 H 524.148 -0.497921 -0.548777 0
M  V30 5533 H 526.795 -1.71599 -0.85007 0
M  V30 5534 H 525.1 -1.8503 -3.45356 0
M  V30 5535 H 526.797 -2.22384 -3.33686 0
M  V30 5536 H 523.387 -3.43279 -2.56627 0
M  V30 5537 H 527.571 -4.3838 -2.32672 0
M  V30 5538 H 522.827 -5.76615 -2.03287 0
M  V30 5539 H 527.001 -6.72644 -1.80341 0
M  V30 5540 H 524.628 -7.42051 -1.65117 0
M  V30 5541 N 526.204 0.969867 -1.24223 0
M  V30 5542 C 527.432 1.74756 -1.10761 0
M  V30 5543 C 527.847 1.85713 0.340041 0
M  V30 5544 O 527.204 1.34389 1.23474 0
M  V30 5545 C 527.255 3.16915 -1.73917 0
M  V30 5546 O 526.976 3.06511 -3.13021 0
M  V30 5547 C 528.477 4.11032 -1.66036 0
M  V30 5548 H 525.697 0.548092 -0.387087 0
M  V30 5549 H 528.241 1.2178 -1.64286 0
M  V30 5550 H 526.396 3.66884 -1.244 0
M  V30 5551 H 526.81 3.96079 -3.43834 0
M  V30 5552 H 528.284 5.08446 -2.14911 0
M  V30 5553 H 528.761 4.34785 -0.621159 0
M  V30 5554 H 529.367 3.66972 -2.14969 0
M  V30 5555 N 527.682 1.05563 1.17022 0
M  V30 5556 C 528.959 0.68165 1.83338 0
M  V30 5557 C 529.339 -0.837665 1.93769 0
M  V30 5558 O 528.687 -1.74507 1.47511 0
M  V30 5559 C 528.897 1.375 3.20772 0
M  V30 5560 C 530.245 1.51545 3.96635 0
M  V30 5561 O 531.269 1.33431 3.30264 0
M  V30 5562 O 530.128 1.812 5.15586 0
M  V30 5563 H 527.222 0.240412 0.791285 0
M  V30 5564 H 529.768 1.15545 1.24288 0
M  V30 5565 H 528.54 2.41135 3.08171 0
M  V30 5566 H 528.163 0.890798 3.87493 0
M  V30 5567 N 529.16 -1.33526 0.837174 0
M  V30 5568 C 530.385 -2.0258 0.444545 0
M  V30 5569 C 530.81 -1.6258 -0.946006 0
M  V30 5570 O 530.168 -0.817548 -1.6182 0
M  V30 5571 C 530.216 -3.5605 0.571006 0
M  V30 5572 O 529.32 -4.10422 -0.403431 0
M  V30 5573 H 528.661 -0.638866 0.180958 0
M  V30 5574 H 531.191 -1.70462 1.13154 0
M  V30 5575 H 531.201 -4.05488 0.452024 0
M  V30 5576 H 529.876 -3.84509 1.58512 0
M  V30 5577 H 528.453 -3.72113 -0.242147 0
M  V30 5578 N 530.638 -0.59345 -1.46 0
M  V30 5579 C 532.054 -0.255965 -1.57534 0
M  V30 5580 C 532.254 1.24167 -1.58697 0
M  V30 5581 O 531.31 2.02398 -1.50968 0
M  V30 5582 C 532.623 -0.91466 -2.86451 0
M  V30 5583 C 534.171 -0.889253 -3.00102 0
M  V30 5584 C 534.646 -1.52769 -4.3177 0
M  V30 5585 N 536.137 -1.49253 -4.38495 0
M  V30 5586 C 536.872 -1.9558 -5.39014 0
M  V30 5587 N 536.368 -2.49929 -6.46148 0
M  V30 5588 N 538.161 -1.86432 -5.30282 0
M  V30 5589 H 530.312 -1.56604 -1.43489 0
M  V30 5590 H 532.575 -0.655207 -0.685133 0
M  V30 5591 H 532.281 -1.96861 -2.91442 0
M  V30 5592 H 532.155 -0.429356 -3.74748 0
M  V30 5593 H 534.542 0.156111 -2.94687 0
M  V30 5594 H 534.623 -1.41268 -2.13253 0
M  V30 5595 H 534.267 -2.57231 -4.37944 0
M  V30 5596 H 534.197 -0.979398 -5.17412 0
M  V30 5597 H 536.688 -1.09536 -3.61677 0
M  V30 5598 H 537.001 -2.83109 -7.19075 0
M  V30 5599 H 535.346 -2.53961 -6.46938 0
M  V30 5600 H 538.537 -1.43722 -4.4549 0
M  V30 5601 H 538.71 -2.22852 -6.08474 0
M  V30 5602 N 532.116 1.54067 -0.331816 0
M  V30 5603 C 533.364 2.00319 0.267739 0
M  V30 5604 C 533.685 1.22148 1.52003 0
M  V30 5605 O 532.955 0.325494 1.93177 0
M  V30 5606 H 531.535 0.740014 0.101922 0
M  V30 5607 H 534.197 1.89628 -0.450267 0
M  V30 5608 H 533.293 3.07765 0.518385 0
M  V30 5609 N 533.594 0.0601682 1.57485 0
M  V30 5610 C 534.819 -0.624416 1.97777 0
M  V30 5611 C 535.244 -1.63051 0.937867 0
M  V30 5612 O 534.602 -1.81036 -0.0978845 0
M  V30 5613 C 534.65 -1.27979 3.37126 0
M  V30 5614 O 533.754 -2.39556 3.35688 0
M  V30 5615 H 533.095 -0.161581 0.64404 0
M  V30 5616 H 535.625 0.131237 2.04179 0
M  V30 5617 H 535.635 -1.62937 3.74053 0
M  V30 5618 H 534.31 -0.542501 4.12347 0
M  V30 5619 H 532.887 -2.06478 3.10517 0
M  V30 5620 N 535.072 -1.5615 -0.213296 0
M  V30 5621 C 536.019 -1.93086 -1.26437 0
M  V30 5622 C 536.989 -0.789086 -1.4616 0
M  V30 5623 O 538.174 -1.04569 -1.59593 0
M  V30 5624 C 535.314 -2.26003 -2.608 0
M  V30 5625 C 534.427 -3.53156 -2.48807 0
M  V30 5626 C 533.562 -3.7548 -3.7575 0
M  V30 5627 C 532.601 -4.96119 -3.58514 0
M  V30 5628 N 531.738 -5.14791 -4.77425 0
M  V30 5629 H 536.578 -2.82707 -0.942376 0
M  V30 5630 H 534.115 -1.39919 -0.454001 0
M  V30 5631 H 536.073 -2.431 -3.39055 0
M  V30 5632 H 534.703 -1.39546 -2.91079 0
M  V30 5633 H 533.755 -3.44207 -1.61944 0
M  V30 5634 H 535.067 -4.41565 -2.31996 0
M  V30 5635 H 534.221 -3.92718 -4.62447 0
M  V30 5636 H 532.96 -2.85368 -3.95495 0
M  V30 5637 H 531.965 -4.78823 -2.70201 0
M  V30 5638 H 533.19 -5.87724 -3.40231 0
M  V30 5639 H 531.136 -4.27623 -4.97468 0
M  V30 5640 H 531.053 -5.97347 -4.63371 0
M  V30 5641 H 532.321 -5.36471 -5.65525 0
M  V30 5642 N 536.55 0.480323 -1.50102 0
M  V30 5643 C 537.483 1.59789 -1.62919 0
M  V30 5644 C 538.461 1.55429 -0.477557 0
M  V30 5645 O 539.645 1.75186 -0.695851 0
M  V30 5646 C 536.772 2.98351 -1.60325 0
M  V30 5647 C 535.818 3.20899 -2.80938 0
M  V30 5648 S 536.651 3.01791 -4.4236 0
M  V30 5649 C 537.807 4.42712 -4.42444 0
M  V30 5650 H 538.04 1.48676 -2.57454 0
M  V30 5651 H 535.573 0.666996 -1.3925 0
M  V30 5652 H 537.531 3.7824 -1.59514 0
M  V30 5653 H 536.192 3.06862 -0.670419 0
M  V30 5654 H 535.385 4.22102 -2.75401 0
M  V30 5655 H 534.987 2.48768 -2.79268 0
M  V30 5656 H 537.279 5.3518 -4.15438 0
M  V30 5657 H 538.222 4.53294 -5.43995 0
M  V30 5658 H 538.63 4.24359 -3.72263 0
M  V30 5659 N 538.028 1.39524 0.732853 0
M  V30 5660 C 539.256 1.40143 1.52209 0
M  V30 5661 C 539.671 -0.00348836 1.888 0
M  V30 5662 O 539.028 -0.975357 1.5425 0
M  V30 5663 C 539.079 2.27632 2.8083 0
M  V30 5664 O 538.8 3.62654 2.45792 0
M  V30 5665 C 540.301 2.36658 3.74844 0
M  V30 5666 H 537.521 0.478604 0.470297 0
M  V30 5667 H 540.065 1.83366 0.905388 0
M  V30 5668 H 538.22 1.87818 3.38826 0
M  V30 5669 H 538.634 4.08941 3.28431 0
M  V30 5670 H 540.108 3.02118 4.61984 0
M  V30 5671 H 540.585 1.38638 4.16745 0
M  V30 5672 H 541.191 2.76951 3.22766 0
M  V30 5673 N 539.506 -0.963266 1.24736 0
M  V30 5674 C 540.755 -1.70115 1.08369 0
M  V30 5675 C 541.068 -1.91939 -0.376688 0
M  V30 5676 O 542.274 -2.6334 -0.660624 0
M  V30 5677 C 540.73 -3.06218 1.89099 0
M  V30 5678 C 540.338 -2.92221 3.39574 0
M  V30 5679 C 542.082 -3.83848 1.81275 0
M  V30 5680 C 539.989 -4.23662 4.12631 0
M  V30 5681 H 538.919 -0.637944 0.401924 0
M  V30 5682 H 541.57 -1.07304 1.48856 0
M  V30 5683 H 539.952 -3.69884 1.41429 0
M  V30 5684 H 541.126 -2.37541 3.94856 0
M  V30 5685 H 539.441 -2.28054 3.48397 0
M  V30 5686 H 542.038 -4.81188 2.33158 0
M  V30 5687 H 542.381 -4.08949 0.778895 0
M  V30 5688 H 542.914 -3.26918 2.26649 0
M  V30 5689 H 539.653 -4.03753 5.16395 0
M  V30 5690 H 539.173 -4.78141 3.62135 0
M  V30 5691 H 540.852 -4.92256 4.19873 0
M  V30 5692 N 540.985 -1.06182 -1.16461 0
M  V30 5693 C 542.262 -0.691364 -1.82974 0
M  V30 5694 C 542.642 0.827377 -1.9421 0
M  V30 5695 O 541.99 1.73723 -1.48434 0
M  V30 5696 C 542.2 -1.39199 -3.20038 0
M  V30 5697 C 543.548 -1.53647 -3.95825 0
M  V30 5698 O 544.572 -1.35181 -3.29552 0
M  V30 5699 O 543.431 -1.83932 -5.14618 0
M  V30 5700 H 540.525 -0.244605 -0.789998 0
M  V30 5701 H 543.071 -1.16203 -1.23673 0
M  V30 5702 H 541.843 -2.42766 -3.06888 0
M  V30 5703 H 541.466 -0.911335 -3.87015 0
M  V30 5704 N 542.463 1.3308 -0.844243 0
M  V30 5705 C 543.711 1.97215 -0.441676 0
M  V30 5706 C 544.032 1.67185 1.0037 0
M  V30 5707 O 543.302 0.973588 1.69994 0
M  V30 5708 H 541.882 0.72959 -0.160335 0
M  V30 5709 H 544.544 1.62348 -1.07838 0
M  V30 5710 H 543.64 3.06698 -0.57815 0
M  V30 5711 N 543.941 0.601185 1.45683 0
M  V30 5712 C 545.19 0.0914953 2.01492 0
M  V30 5713 C 545.503 -1.28331 1.47616 0
M  V30 5714 O 546.709 -1.88537 1.95362 0
M  V30 5715 C 545.165 0.11291 3.59723 0
M  V30 5716 C 544.773 1.48717 4.22596 0
M  V30 5717 C 546.517 -0.341871 4.23121 0
M  V30 5718 C 544.424 1.46531 5.7296 0
M  V30 5719 H 543.354 0.0304365 0.753385 0
M  V30 5720 H 546.005 0.755568 1.67223 0
M  V30 5721 H 544.387 -0.617692 3.91153 0
M  V30 5722 H 545.561 2.23897 4.02749 0
M  V30 5723 H 543.876 1.88351 3.71366 0
M  V30 5724 H 546.473 -0.377304 5.33367 0
M  V30 5725 H 546.816 -1.36325 3.93346 0
M  V30 5726 H 547.349 0.335256 3.96385 0
M  V30 5727 H 544.088 2.46408 6.07423 0
M  V30 5728 H 543.608 0.755997 5.95017 0
M  V30 5729 H 545.287 1.18618 6.36034 0
M  V30 5730 N 545.419 -1.53889 0.339982 0
M  V30 5731 C 546.647 -2.05271 -0.259114 0
M  V30 5732 C 547.062 -1.21517 -1.44496 0
M  V30 5733 O 546.419 -0.24966 -1.80784 0
M  V30 5734 C 546.47 -3.55092 -0.677634 0
M  V30 5735 O 546.191 -4.35667 0.461051 0
M  V30 5736 C 547.692 -4.22631 -1.33782 0
M  V30 5737 H 544.912 -0.669085 -0.0506566 0
M  V30 5738 H 547.456 -1.9852 0.490935 0
M  V30 5739 H 545.611 -3.62077 -1.37763 0
M  V30 5740 H 546.025 -5.24343 0.128144 0
M  V30 5741 H 547.499 -5.28861 -1.58145 0
M  V30 5742 H 547.976 -3.74758 -2.29027 0
M  V30 5743 H 548.582 -4.19829 -0.679957 0
M  V30 5744 N 546.897 -0.0685191 -1.57451 0
M  V30 5745 C 548.122 0.613919 -1.98106 0
M  V30 5746 C 548.547 1.62551 -0.946501 0
M  V30 5747 O 547.905 1.81085 0.0882824 0
M  V30 5748 C 547.953 1.26189 -3.378 0
M  V30 5749 O 547.057 2.37773 -3.36954 0
M  V30 5750 H 546.398 0.158163 -0.644888 0
M  V30 5751 H 548.928 -0.142063 -2.04106 0
M  V30 5752 H 548.938 1.60951 -3.74912 0
M  V30 5753 H 547.613 0.520625 -4.12629 0
M  V30 5754 H 546.19 2.04829 -3.11608 0
M  V30 5755 N 548.375 1.56261 0.205012 0
M  V30 5756 C 549.323 1.94631 1.27364 0
M  V30 5757 C 550.317 0.830434 1.47649 0
M  V30 5758 O 551.523 1.01538 1.48627 0
M  V30 5759 H 547.898 0.618755 0.427371 0
M  V30 5760 H 549.869 2.83768 0.922941 0
M  V30 5761 C 548.618 2.29358 2.61324 0
M  V30 5762 H 547.941 3.14744 2.46528 0
M  V30 5763 H 549.381 2.60076 3.34868 0
M  V30 5764 C 547.84 1.12461 3.17575 0
M  V30 5765 O 548.37 0.394407 3.99759 0
M  V30 5766 N 546.576 0.904036 2.7618 0
M  V30 5767 H 546.123 1.49956 2.09454 0
M  V30 5768 H 546.081 0.123662 3.14157 0
M  V30 5769 N 549.853 -0.472356 1.50355 0
M  V30 5770 C 551.13 -1.23356 1.51798 0
M  V30 5771 C 551.51 -2.09469 0.26193 0
M  V30 5772 O 550.858 -2.15677 -0.754691 0
M  V30 5773 C 551.068 -2.06568 2.81302 0
M  V30 5774 C 552.416 -2.648 3.31913 0
M  V30 5775 O 553.44 -2.16812 2.82614 0
M  V30 5776 O 552.299 -3.52231 4.17846 0
M  V30 5777 H 549.393 -0.559707 0.608816 0
M  V30 5778 H 551.939 -0.48428 1.62643 0
M  V30 5779 H 550.711 -1.43103 3.64194 0
M  V30 5780 H 550.334 -2.88633 2.73454 0
M  V30 5781 N 551.331 -1.39911 -0.725443 0
M  V30 5782 C 552.58 -1.36963 -1.48068 0
M  V30 5783 C 552.893 0.0284478 -1.95579 0
M  V30 5784 O 554.099 0.180535 -2.70899 0
M  V30 5785 C 552.555 -2.40664 -2.67598 0
M  V30 5786 C 552.163 -3.86234 -2.26997 0
M  V30 5787 C 553.907 -2.46807 -3.45379 0
M  V30 5788 C 551.814 -4.81554 -3.43307 0
M  V30 5789 H 550.744 -0.509223 -0.556065 0
M  V30 5790 H 553.395 -1.65602 -0.790454 0
M  V30 5791 H 551.777 -2.05109 -3.38742 0
M  V30 5792 H 552.951 -4.3088 -1.63337 0
M  V30 5793 H 551.266 -3.83475 -1.62284 0
M  V30 5794 H 553.863 -3.15213 -4.31909 0
M  V30 5795 H 554.206 -1.49552 -3.8851 0
M  V30 5796 H 554.739 -2.81303 -2.81271 0
M  V30 5797 H 551.478 -5.80106 -3.05217 0
M  V30 5798 H 550.998 -4.4158 -4.05915 0
M  V30 5799 H 552.677 -5.0091 -4.0951 0
M  V30 5800 N 552.809 0.956637 -1.25245 0
M  V30 5801 C 554.039 1.7332 -1.12445 0
M  V30 5802 C 554.447 1.86392 0.324732 0
M  V30 5803 O 553.79 1.35967 1.23526 0
M  V30 5804 C 553.852 3.16603 -1.70303 0
M  V30 5805 C 553.516 3.26966 -3.19284 0
M  V30 5806 C 554.513 3.11434 -4.16299 0
M  V30 5807 C 552.198 3.50851 -3.59456 0
M  V30 5808 C 554.192 3.1963 -5.51467 0
M  V30 5809 C 551.879 3.58684 -4.94761 0
M  V30 5810 C 552.877 3.43087 -5.90576 0
M  V30 5811 O 552.565 3.50598 -7.2342 0
M  V30 5812 H 552.297 0.549981 -0.393061 0
M  V30 5813 H 554.851 1.20892 -1.66055 0
M  V30 5814 H 553.081 3.70385 -1.11138 0
M  V30 5815 H 554.77 3.76109 -1.52632 0
M  V30 5816 H 555.536 2.92853 -3.86604 0
M  V30 5817 H 551.415 3.62053 -2.85375 0
M  V30 5818 H 554.959 3.07373 -6.26233 0
M  V30 5819 H 550.856 3.76782 -5.24124 0
M  V30 5820 H 551.624 3.67242 -7.31489 0
M  V30 5821 N 554.287 1.06798 1.15896 0
M  V30 5822 C 555.22 0.627503 2.19403 0
M  V30 5823 C 556.198 -0.352352 1.58736 0
M  V30 5824 O 557.382 -0.260111 1.86697 0
M  V30 5825 C 554.509 -0.079356 3.38607 0
M  V30 5826 C 553.555 0.858057 4.17779 0
M  V30 5827 S 554.388 2.35605 4.80885 0
M  V30 5828 C 555.544 1.66083 6.03463 0
M  V30 5829 H 555.777 1.50441 2.56427 0
M  V30 5830 H 553.31 0.881427 1.26768 0
M  V30 5831 H 555.268 -0.48095 4.07673 0
M  V30 5832 H 553.929 -0.932524 2.99938 0
M  V30 5833 H 553.122 0.310108 5.03045 0
M  V30 5834 H 552.724 1.19977 3.54234 0
M  V30 5835 H 555.016 0.969337 6.7053 0
M  V30 5836 H 555.959 2.49159 6.62816 0
M  V30 5837 H 556.367 1.14122 5.52844 0
M  V30 5838 N 555.766 -1.3263 0.851289 0
M  V30 5839 C 556.696 -2.31449 0.308771 0
M  V30 5840 C 557.677 -1.59531 -0.590255 0
M  V30 5841 O 558.862 -1.87351 -0.511205 0
M  V30 5842 C 555.992 -3.43586 -0.506548 0
M  V30 5843 C 554.946 -4.26963 0.297753 0
M  V30 5844 C 554.272 -5.30831 -0.642094 0
M  V30 5845 C 555.572 -4.99643 1.52166 0
M  V30 5846 H 557.266 -2.77074 1.13447 0
M  V30 5847 H 554.812 -1.33207 0.546971 0
M  V30 5848 H 556.765 -4.11754 -0.896474 0
M  V30 5849 H 555.489 -2.96681 -1.36558 0
M  V30 5850 H 554.148 -3.60437 0.669391 0
M  V30 5851 H 553.796 -4.8018 -1.49788 0
M  V30 5852 H 553.496 -5.87501 -0.107968 0
M  V30 5853 H 555.02 -6.01862 -1.02927 0
M  V30 5854 H 556.434 -5.6051 1.20421 0
M  V30 5855 H 554.831 -5.66022 1.99347 0
M  V30 5856 H 555.901 -4.27701 2.28474 0
M  V30 5857 N 557.244 -0.608902 -1.45362 0
M  V30 5858 C 558.492 -0.104401 -2.0183 0
M  V30 5859 C 558.813 1.27007 -1.47967 0
M  V30 5860 O 558.083 1.83924 -0.674455 0
M  V30 5861 H 556.663 -0.0356042 -0.746151 0
M  V30 5862 H 559.325 -0.790596 -1.78145 0
M  V30 5863 H 558.421 -0.0551793 -3.12051 0
M  V30 5864 N 558.722 1.53707 -0.348139 0
M  V30 5865 C 559.952 2.05108 0.247864 0
M  V30 5866 C 560.36 1.22252 1.44399 0
M  V30 5867 O 559.703 0.251853 1.81965 0
M  V30 5868 C 559.765 3.52171 0.722187 0
M  V30 5869 C 559.429 4.5562 -0.354902 0
M  V30 5870 C 560.426 5.05883 -1.19911 0
M  V30 5871 C 558.111 4.99703 -0.510145 0
M  V30 5872 C 560.105 5.98814 -2.18406 0
M  V30 5873 C 557.792 5.92443 -1.49848 0
M  V30 5874 C 558.79 6.41887 -2.33389 0
M  V30 5875 O 558.478 7.32802 -3.3054 0
M  V30 5876 H 558.21 0.674086 0.0508296 0
M  V30 5877 H 560.764 1.99229 -0.49968 0
M  V30 5878 H 558.994 3.55529 1.52105 0
M  V30 5879 H 560.683 3.8652 1.23925 0
M  V30 5880 H 561.449 4.72586 -1.09028 0
M  V30 5881 H 557.328 4.60816 0.130274 0
M  V30 5882 H 560.872 6.3733 -2.83649 0
M  V30 5883 H 556.769 6.25155 -1.60786 0
M  V30 5884 H 557.537 7.50749 -3.26064 0
M  V30 5885 N 560.2 0.0768682 1.57412 0
M  V30 5886 C 561.446 -0.591961 1.93968 0
M  V30 5887 C 561.779 -1.68954 0.9575 0
M  V30 5888 O 561.054 -1.94496 -0.0124675 0
M  V30 5889 C 561.337 -1.16418 3.40762 0
M  V30 5890 C 561.19 -0.0728933 4.49741 0
M  V30 5891 C 562.509 -2.06814 3.88479 0
M  V30 5892 H 559.628 -0.213716 0.705333 0
M  V30 5893 H 562.27 0.14387 1.89455 0
M  V30 5894 H 560.42 -1.79128 3.4474 0
M  V30 5895 H 562.092 0.560446 4.57883 0
M  V30 5896 H 560.335 0.595859 4.29688 0
M  V30 5897 H 561.006 -0.513755 5.49604 0
M  V30 5898 H 563.482 -1.54033 3.8654 0
M  V30 5899 H 562.358 -2.43785 4.91793 0
M  V30 5900 H 562.619 -2.97844 3.26713 0
M  V30 5901 N 561.678 -1.56367 -0.196722 0
M  V30 5902 C 562.903 -1.84991 -0.937714 0
M  V30 5903 C 563.328 -0.660244 -1.76132 0
M  V30 5904 O 562.686 0.390967 -1.77034 0
M  V30 5905 C 562.734 -3.11828 -1.81096 0
M  V30 5906 O 561.838 -2.92266 -2.90955 0
M  V30 5907 H 561.179 -0.609193 -0.264159 0
M  V30 5908 H 563.709 -2.03595 -0.202529 0
M  V30 5909 H 563.719 -3.42579 -2.21594 0
M  V30 5910 H 562.394 -3.98037 -1.2058 0
M  V30 5911 H 560.971 -2.72809 -2.54224 0
M  V30 5912 N 563.156 0.464375 -1.50603 0
M  V30 5913 C 564.104 1.58224 -1.70493 0
M  V30 5914 C 565.098 1.59492 -0.570836 0
M  V30 5915 O 566.304 1.63561 -0.751517 0
M  V30 5916 H 562.679 0.525161 -0.538247 0
M  V30 5917 H 564.65 1.38613 -2.64252 0
M  V30 5918 C 563.399 2.96113 -1.82243 0
M  V30 5919 H 562.722 2.95858 -2.68901 0
M  V30 5920 H 564.162 3.73769 -2.00182 0
M  V30 5921 C 562.621 3.31946 -0.575628 0
M  V30 5922 O 563.151 4.00708 0.282152 0
M  V30 5923 N 561.357 2.87436 -0.427665 0
M  V30 5924 H 560.904 2.31652 -1.12674 0
M  V30 5925 H 560.862 3.11776 0.405379 0
M  V30 5926 N 564.634 1.40294 0.718013 0
M  V30 5927 C 565.859 1.41941 1.5122 0
M  V30 5928 C 566.284 0.0202371 1.88089 0
M  V30 5929 O 565.642 -0.971078 1.53101 0
M  V30 5930 C 565.69 2.3141 2.76554 0
M  V30 5931 O 564.794 1.75567 3.73162 0
M  V30 5932 H 564.135 0.482644 0.456016 0
M  V30 5933 H 566.665 1.84494 0.884478 0
M  V30 5934 H 566.675 2.46513 3.25108 0
M  V30 5935 H 565.35 3.33085 2.49053 0
M  V30 5936 H 563.927 1.69798 3.31999 0
M  V30 5937 N 566.112 -0.949982 1.2575 0
M  V30 5938 C 567.042 -2.06483 1.09028 0
M  V30 5939 C 568.023 -1.701 -0.00201532 0
M  V30 5940 O 569.208 -1.93469 0.168383 0
M  V30 5941 C 566.338 -3.39899 0.71316 0
M  V30 5942 C 565.292 -3.90309 1.75621 0
M  V30 5943 C 564.618 -5.20274 1.23365 0
M  V30 5944 C 565.918 -4.16169 3.15596 0
M  V30 5945 H 567.612 -2.20731 2.02283 0
M  V30 5946 H 565.158 -1.06066 0.973964 0
M  V30 5947 H 567.111 -4.17346 0.58309 0
M  V30 5948 H 565.835 -3.25602 -0.255091 0
M  V30 5949 H 564.494 -3.15035 1.8748 0
M  V30 5950 H 564.142 -5.02351 0.255491 0
M  V30 5951 H 563.842 -5.54971 1.93082 0
M  V30 5952 H 565.366 -6.00314 1.11607 0
M  V30 5953 H 566.78 -4.84259 3.06864 0
M  V30 5954 H 565.177 -4.62131 3.82825 0
M  V30 5955 H 566.247 -3.22273 3.6231 0
M  V30 5956 N 567.59 -1.07411 -1.15328 0
M  V30 5957 C 568.818 -0.818782 -1.90009 0
M  V30 5958 C 569.233 0.628072 -1.78047 0
M  V30 5959 O 568.59 1.43085 -1.13282 0
M  V30 5960 C 568.641 -1.21874 -3.40337 0
M  V30 5961 O 568.362 -2.60883 -3.51954 0
M  V30 5962 C 569.863 -0.992796 -4.3204 0
M  V30 5963 H 567.083 -0.296007 -0.60218 0
M  V30 5964 H 569.627 -1.43073 -1.46117 0
M  V30 5965 H 567.782 -0.651103 -3.81889 0
M  V30 5966 H 568.196 -2.77216 -4.45255 0
M  V30 5967 H 569.67 -1.32215 -5.35932 0
M  V30 5968 H 570.147 0.0708331 -4.39143 0
M  V30 5969 H 570.753 -1.54537 -3.9623 0
M  V30 5970 N 569.068 1.32177 -0.85831 0
M  V30 5971 C 570.316 1.96735 -0.462568 0
M  V30 5972 C 570.637 1.6824 0.985911 0
M  V30 5973 O 569.907 0.991564 1.68952 0
M  V30 5974 H 568.487 0.727849 -0.168064 0
M  V30 5975 H 571.149 1.61195 -1.09554 0
M  V30 5976 H 570.245 3.06068 -0.610647 0
M  V30 5977 N 570.547 0.616602 1.45037 0
M  V30 5978 C 571.958 0.199359 1.85633 0
M  V30 5979 C 572.309 -1.24588 1.51566 0
M  V30 5980 O 571.434 -1.94594 0.94668 0
M  V30 5981 C 572.029 0.355033 3.36935 0
M  V30 5982 C 570.588 -0.00758748 3.76399 0
M  V30 5983 C 569.735 0.675256 2.68953 0
M  V30 5984 H 572.686 0.822708 1.3571 0
M  V30 5985 H 572.707 -0.410201 3.78282 0
M  V30 5986 H 572.219 1.40699 3.61698 0
M  V30 5987 H 570.32 -1.05837 3.57252 0
M  V30 5988 H 570.433 0.392346 4.77491 0
M  V30 5989 H 568.797 0.111992 2.54454 0
M  V30 5990 H 569.58 1.72952 2.96551 0
M  V30 5991 N 572.025 -1.5352 0.356285 0
M  V30 5992 C 573.255 -2.05236 -0.236983 0
M  V30 5993 C 573.663 -1.23016 -1.43749 0
M  V30 5994 O 573.006 -0.2615 -1.81829 0
M  V30 5995 C 573.068 -3.52549 -0.7035 0
M  V30 5996 C 572.732 -4.55425 0.379059 0
M  V30 5997 C 573.729 -5.0524 1.22592 0
M  V30 5998 C 571.414 -4.99425 0.536638 0
M  V30 5999 C 573.408 -5.97647 2.21578 0
M  V30 6000 C 571.095 -5.9164 1.52988 0
M  V30 6001 C 572.093 -6.4064 2.3679 0
M  V30 6002 O 571.781 -7.31039 3.34421 0
M  V30 6003 H 571.513 -0.674346 -0.047254 0
M  V30 6004 H 574.067 -1.98962 0.510238 0
M  V30 6005 H 572.297 -3.56331 -1.50217 0
M  V30 6006 H 573.986 -3.87171 -1.21873 0
M  V30 6007 H 574.752 -4.72002 1.11532 0
M  V30 6008 H 570.631 -4.60879 -0.105834 0
M  V30 6009 H 574.175 -6.35816 2.87025 0
M  V30 6010 H 570.072 -6.24293 1.64099 0
M  V30 6011 H 570.84 -7.49009 3.30041 0
M  V30 6012 N 573.503 -0.0852151 -1.57369 0
M  V30 6013 C 574.45 0.877268 -2.13478 0
M  V30 6014 C 575.42 1.28642 -1.05073 0
M  V30 6015 O 576.605 1.36992 -1.32808 0
M  V30 6016 C 573.745 2.13464 -2.71159 0
M  V30 6017 C 572.858 1.77691 -3.93764 0
M  V30 6018 C 571.993 2.98139 -4.39643 0
M  V30 6019 C 571.032 2.58447 -5.54862 0
M  V30 6020 N 570.169 3.71698 -5.95639 0
M  V30 6021 H 575.009 0.391933 -2.95411 0
M  V30 6022 H 572.546 0.181796 -1.45972 0
M  V30 6023 H 574.504 2.87086 -3.02717 0
M  V30 6024 H 573.134 2.59514 -1.91969 0
M  V30 6025 H 572.186 0.940768 -3.68583 0
M  V30 6026 H 573.498 1.44497 -4.77412 0
M  V30 6027 H 572.652 3.80026 -4.72933 0
M  V30 6028 H 571.391 3.34536 -3.54876 0
M  V30 6029 H 570.396 1.74984 -5.21211 0
M  V30 6030 H 571.621 2.23205 -6.41371 0
M  V30 6031 H 569.567 4.07831 -5.13819 0
M  V30 6032 H 569.484 3.42317 -6.74059 0
M  V30 6033 H 570.752 4.54123 -6.33555 0
M  V30 6034 N 574.981 1.5647 0.188427 0
M  V30 6035 C 576.392 1.70864 0.752494 0
M  V30 6036 C 576.743 0.692905 1.83557 0
M  V30 6037 O 575.868 -0.149307 2.15884 0
M  V30 6038 C 576.463 3.09789 1.37173 0
M  V30 6039 C 575.022 3.25925 1.88281 0
M  V30 6040 C 574.169 2.66817 0.755259 0
M  V30 6041 H 577.12 1.58657 -0.0367408 0
M  V30 6042 H 577.141 3.07489 2.24122 0
M  V30 6043 H 576.653 3.83693 0.583219 0
M  V30 6044 H 574.754 2.56948 2.6983 0
M  V30 6045 H 574.867 4.33498 2.04001 0
M  V30 6046 H 573.231 2.2617 1.17128 0
M  V30 6047 H 574.014 3.43294 -0.0211237 0
M  V30 6048 N 576.459 -0.456382 1.50847 0
M  V30 6049 C 577.389 -1.56025 1.73719 0
M  V30 6050 C 578.37 -1.5967 0.586473 0
M  V30 6051 O 579.555 -1.75702 0.827185 0
M  V30 6052 C 576.685 -2.94251 1.84483 0
M  V30 6053 C 575.639 -3.05471 2.99786 0
M  V30 6054 C 574.965 -4.45489 2.95709 0
M  V30 6055 C 576.265 -2.81318 4.40065 0
M  V30 6056 H 577.959 -1.37138 2.66146 0
M  V30 6057 H 575.505 -0.658299 1.28072 0
M  V30 6058 H 577.458 -3.71417 1.99067 0
M  V30 6059 H 576.182 -3.14328 0.886891 0
M  V30 6060 H 574.841 -2.30741 2.84876 0
M  V30 6061 H 574.489 -4.62505 1.97732 0
M  V30 6062 H 574.189 -4.53929 3.73125 0
M  V30 6063 H 575.713 -5.24655 3.12362 0
M  V30 6064 H 577.127 -3.48226 4.55425 0
M  V30 6065 H 575.524 -3.01188 5.19043 0
M  V30 6066 H 576.594 -1.7706 4.51418 0
M  V30 6067 N 577.937 -1.40673 -0.710563 0
M  V30 6068 C 578.885 -1.41517 -1.84596 0
M  V30 6069 C 579.879 -0.295043 -1.66811 0
M  V30 6070 O 581.085 -0.466331 -1.73854 0
M  V30 6071 H 577.46 -0.442467 -0.608052 0
M  V30 6072 H 579.431 -2.37238 -1.80999 0
M  V30 6073 C 578.18 -1.29957 -3.225 0
M  V30 6074 H 577.503 -2.15429 -3.36794 0
M  V30 6075 H 578.943 -1.34608 -4.02066 0
M  V30 6076 C 577.402 -0.0103164 -3.36898 0
M  V30 6077 O 577.932 0.950707 -3.90288 0
M  V30 6078 N 576.138 0.0608409 -2.90536 0
M  V30 6079 H 575.685 -0.721943 -2.47277 0
M  V30 6080 H 575.643 0.92292 -3.00549 0
M  V30 6081 N 579.415 0.9433 -1.26252 0
M  V30 6082 C 580.362 2.0417 -1.07625 0
M  V30 6083 C 581.332 1.6609 0.0180738 0
M  V30 6084 O 582.517 1.90276 -0.141289 0
M  V30 6085 C 579.657 3.37653 -0.713043 0
M  V30 6086 C 578.77 3.88783 -1.8834 0
M  V30 6087 C 577.905 5.10642 -1.4635 0
M  V30 6088 C 576.944 5.54028 -2.60229 0
M  V30 6089 N 576.081 6.67092 -2.18936 0
M  V30 6090 H 580.921 2.19436 -2.01623 0
M  V30 6091 H 578.458 1.07519 -1.00389 0
M  V30 6092 H 580.416 4.14391 -0.483358 0
M  V30 6093 H 579.046 3.22241 0.18996 0
M  V30 6094 H 578.098 3.08464 -2.22608 0
M  V30 6095 H 579.41 4.16922 -2.73821 0
M  V30 6096 H 578.564 5.94832 -1.19414 0
M  V30 6097 H 577.303 4.84244 -0.579568 0
M  V30 6098 H 576.308 4.68396 -2.87898 0
M  V30 6099 H 577.533 5.82429 -3.49219 0
M  V30 6100 H 575.479 6.42381 -1.32974 0
M  V30 6101 H 575.396 6.94806 -2.97961 0
M  V30 6102 H 576.664 7.54662 -1.95206 0
M  V30 6103 N 580.893 1.08022 1.14757 0
M  V30 6104 C 582.121 0.828847 1.89572 0
M  V30 6105 C 582.536 -0.618621 1.78377 0
M  V30 6106 O 581.893 -1.42482 1.1404 0
M  V30 6107 C 581.944 1.23677 3.39685 0
M  V30 6108 O 581.665 2.62746 3.50566 0
M  V30 6109 C 583.166 1.01569 4.31507 0
M  V30 6110 H 580.386 0.299196 0.600602 0
M  V30 6111 H 582.93 1.43846 1.45357 0
M  V30 6112 H 581.085 0.671347 3.81539 0
M  V30 6113 H 581.499 2.79573 4.43778 0
M  V30 6114 H 582.973 1.35055 5.35223 0
M  V30 6115 H 583.45 -0.0475433 4.39174 0
M  V30 6116 H 584.056 1.56636 3.95405 0
M  V30 6117 N 582.371 -1.3172 0.865308 0
M  V30 6118 C 583.619 -1.96487 0.472995 0
M  V30 6119 C 583.94 -1.68761 -0.976975 0
M  V30 6120 O 583.21 -1.00051 -1.68424 0
M  V30 6121 H 581.79 -0.726947 0.171922 0
M  V30 6122 H 584.452 -1.60612 1.10407 0
M  V30 6123 H 583.548 -3.0574 0.62687 0
M  V30 6124 N 583.85 -0.624285 -1.44708 0
M  V30 6125 C 584.779 0.0717025 -2.3339 0
M  V30 6126 C 585.76 0.841814 -1.47809 0
M  V30 6127 O 586.946 0.809056 -1.76544 0
M  V30 6128 C 584.076 1.05852 -3.30776 0
M  V30 6129 C 583.029 0.400503 -4.26122 0
M  V30 6130 C 582.356 1.49674 -5.13324 0
M  V30 6131 C 583.656 -0.688924 -5.17737 0
M  V30 6132 H 585.35 -0.668819 -2.91834 0
M  V30 6133 H 582.896 -0.32308 -1.40329 0
M  V30 6134 H 584.849 1.5541 -3.91696 0
M  V30 6135 H 583.572 1.82984 -2.70526 0
M  V30 6136 H 582.231 -0.0743687 -3.66525 0
M  V30 6137 H 581.88 2.25877 -4.49431 0
M  V30 6138 H 581.58 1.06188 -5.77926 0
M  V30 6139 H 583.104 1.99427 -5.77115 0
M  V30 6140 H 584.518 -0.276724 -5.72632 0
M  V30 6141 H 582.915 -1.04652 -5.90904 0
M  V30 6142 H 583.985 -1.55884 -4.5916 0
M  V30 6143 N 585.328 1.53329 -0.364422 0
M  V30 6144 C 586.574 2.01537 0.225969 0
M  V30 6145 C 586.907 1.25128 1.48515 0
M  V30 6146 O 586.182 0.344653 1.91422 0
M  V30 6147 C 586.465 3.56339 0.519092 0
M  V30 6148 C 586.318 4.43441 -0.753639 0
M  V30 6149 C 587.637 4.19833 1.32015 0
M  V30 6150 H 584.756 0.732573 0.0806548 0
M  V30 6151 H 587.398 1.83597 -0.489084 0
M  V30 6152 H 585.548 3.71756 1.12825 0
M  V30 6153 H 587.22 4.39823 -1.39116 0
M  V30 6154 H 585.463 4.11457 -1.37424 0
M  V30 6155 H 586.134 5.49699 -0.503517 0
M  V30 6156 H 588.61 4.08242 0.804859 0
M  V30 6157 H 587.486 5.28177 1.49399 0
M  V30 6158 H 587.747 3.75821 2.32832 0
M  V30 6159 N 586.806 0.0935595 1.57322 0
M  V30 6160 C 587.736 -0.863062 2.16964 0
M  V30 6161 C 588.717 -1.29528 1.10256 0
M  V30 6162 O 589.902 -1.36245 1.38387 0
M  V30 6163 C 587.032 -2.12276 2.74875 0
M  V30 6164 C 585.986 -1.82921 3.86942 0
M  V30 6165 C 585.312 -3.15707 4.31548 0
M  V30 6166 C 586.612 -1.11737 5.10208 0
M  V30 6167 H 588.306 -0.366145 2.97153 0
M  V30 6168 H 585.852 -0.174673 1.42937 0
M  V30 6169 H 587.805 -2.79634 3.1525 0
M  V30 6170 H 586.529 -2.64248 1.91938 0
M  V30 6171 H 585.188 -1.17961 3.47103 0
M  V30 6172 H 584.836 -3.65563 3.45504 0
M  V30 6173 H 584.536 -2.96849 5.07104 0
M  V30 6174 H 586.06 -3.84226 4.74555 0
M  V30 6175 H 587.474 -1.69203 5.47762 0
M  V30 6176 H 585.871 -1.03064 5.91183 0
M  V30 6177 H 586.941 -0.0998818 4.84797 0
M  V30 6178 N 588.284 -1.56567 -0.180126 0
M  V30 6179 C 589.231 -1.95725 -1.22313 0
M  V30 6180 C 590.201 -0.819911 -1.44453 0
M  V30 6181 O 591.386 -1.07931 -1.57339 0
M  V30 6182 C 588.526 -2.31484 -2.55947 0
M  V30 6183 C 587.639 -3.58354 -2.4126 0
M  V30 6184 C 586.774 -3.83366 -3.67701 0
M  V30 6185 C 585.813 -5.03612 -3.47909 0
M  V30 6186 N 584.95 -5.24802 -4.66398 0
M  V30 6187 H 589.79 -2.84642 -0.882198 0
M  V30 6188 H 587.327 -1.4085 -0.42422 0
M  V30 6189 H 589.285 -2.50237 -3.33822 0
M  V30 6190 H 587.915 -1.45689 -2.88053 0
M  V30 6191 H 586.967 -3.47565 -1.54606 0
M  V30 6192 H 588.279 -4.46386 -2.22577 0
M  V30 6193 H 587.433 -4.02439 -4.54013 0
M  V30 6194 H 586.172 -2.93692 -3.89353 0
M  V30 6195 H 585.177 -4.84447 -2.59983 0
M  V30 6196 H 586.402 -5.94809 -3.27688 0
M  V30 6197 H 584.348 -4.38079 -4.88286 0
M  V30 6198 H 584.265 -6.07041 -4.50596 0
M  V30 6199 H 585.533 -5.48346 -5.54019 0
M  V30 6200 N 589.762 0.448376 -1.51087 0
M  V30 6201 C 590.695 1.56298 -1.66272 0
M  V30 6202 C 591.673 1.54381 -0.510419 0
M  V30 6203 O 592.857 1.73671 -0.732854 0
M  V30 6204 C 589.984 2.94883 -1.66618 0
M  V30 6205 C 589.03 3.14868 -2.87681 0
M  V30 6206 S 589.863 2.9234 -4.48662 0
M  V30 6207 C 591.019 4.33227 -4.51735 0
M  V30 6208 H 591.252 1.43182 -2.6055 0
M  V30 6209 H 588.785 0.637309 -1.40633 0
M  V30 6210 H 590.743 3.74771 -1.67502 0
M  V30 6211 H 589.404 3.05371 -0.735358 0
M  V30 6212 H 588.597 4.16166 -2.84292 0
M  V30 6213 H 588.199 2.42788 -2.84482 0
M  V30 6214 H 590.491 5.26247 -4.26697 0
M  V30 6215 H 591.434 4.41653 -5.53487 0
M  V30 6216 H 591.842 4.16367 -3.81181 0
M  V30 6217 N 591.24 1.41047 0.703093 0
M  V30 6218 C 592.517 1.30493 1.45708 0
M  V30 6219 C 592.897 -0.0709892 2.10981 0
M  V30 6220 O 592.245 -1.08471 2.01113 0
M  V30 6221 C 592.455 2.45287 2.48265 0
M  V30 6222 C 593.803 2.86104 3.13735 0
M  V30 6223 O 594.827 2.44971 2.58587 0
M  V30 6224 O 593.686 3.57206 4.13601 0
M  V30 6225 H 590.78 0.513144 0.648546 0
M  V30 6226 H 593.326 1.52995 0.734208 0
M  V30 6227 H 592.098 3.37135 1.98635 0
M  V30 6228 H 591.721 2.24622 3.28071 0
M  V30 6229 N 592.718 -0.936591 1.26751 0
M  V30 6230 C 593.648 -2.05315 1.11212 0
M  V30 6231 C 594.629 -1.70092 0.0160262 0
M  V30 6232 O 595.814 -1.93279 0.188894 0
M  V30 6233 C 592.944 -3.39123 0.749171 0
M  V30 6234 C 591.898 -3.88425 1.79751 0
M  V30 6235 C 591.224 -5.18936 1.28876 0
M  V30 6236 C 592.524 -4.12798 3.19992 0
M  V30 6237 H 594.218 -2.18573 2.04613 0
M  V30 6238 H 591.764 -1.05027 0.985159 0
M  V30 6239 H 593.717 -4.16704 0.627323 0
M  V30 6240 H 592.441 -3.25855 -0.220543 0
M  V30 6241 H 591.1 -3.13028 1.90811 0
M  V30 6242 H 590.748 -5.02051 0.308757 0
M  V30 6243 H 590.448 -5.52892 1.98958 0
M  V30 6244 H 591.972 -5.99096 1.17967 0
M  V30 6245 H 593.386 -4.80977 3.11983 0
M  V30 6246 H 591.783 -4.58044 3.87705 0
M  V30 6247 H 592.853 -3.18412 3.65707 0
M  V30 6248 N 594.196 -1.08629 -1.14182 0
M  V30 6249 C 595.473 -0.73002 -1.81466 0
M  V30 6250 C 595.853 0.785996 -1.95922 0
M  V30 6251 O 595.201 1.70535 -1.52086 0
M  V30 6252 C 595.411 -1.45957 -3.17014 0
M  V30 6253 C 596.759 -1.62008 -3.92477 0
M  V30 6254 O 597.783 -1.42141 -3.26611 0
M  V30 6255 O 596.642 -1.94806 -5.106 0
M  V30 6256 H 593.736 -0.261307 -0.784632 0
M  V30 6257 H 596.282 -1.188 -1.2118 0
M  V30 6258 H 595.054 -2.49221 -3.01669 0
M  V30 6259 H 594.677 -0.993222 -3.84995 0
M  V30 6260 N 595.674 1.31259 -0.872281 0
M  V30 6261 C 597.085 1.78822 -0.536617 0
M  V30 6262 C 597.436 1.71855 0.946594 0
M  V30 6263 O 596.561 1.28769 1.73918 0
M  V30 6264 C 597.156 3.24698 -0.967294 0
M  V30 6265 C 595.715 3.70147 -0.683251 0
M  V30 6266 C 594.862 2.51994 -1.15733 0
M  V30 6267 H 597.813 1.18308 -1.05777 0
M  V30 6268 H 597.834 3.79386 -0.290929 0
M  V30 6269 H 597.346 3.29737 -2.04683 0
M  V30 6270 H 595.447 3.70607 0.384825 0
M  V30 6271 H 595.56 4.62183 -1.2619 0
M  V30 6272 H 593.924 2.48078 -0.577024 0
M  V30 6273 H 594.707 2.59778 -2.24434 0
M  V30 6274 N 597.152 0.631951 1.44375 0
M  V30 6275 C 598.1 -0.0846693 2.32446 0
M  V30 6276 C 599.094 -0.834957 1.47393 0
M  V30 6277 O 600.3 -0.747764 1.63733 0
M  V30 6278 H 596.675 -0.0461508 0.750583 0
M  V30 6279 H 598.646 0.67619 2.90638 0
M  V30 6280 C 597.395 -1.05211 3.314 0
M  V30 6281 H 596.718 -0.484203 3.96857 0
M  V30 6282 H 598.158 -1.523 3.95703 0
M  V30 6283 C 596.617 -2.13776 2.60387 0
M  V30 6284 O 597.147 -3.21869 2.4034 0
M  V30 6285 N 595.353 -1.89733 2.20113 0
M  V30 6286 H 594.9 -1.01833 2.36618 0
M  V30 6287 H 594.858 -2.62572 1.72926 0
M  V30 6288 N 598.631 -1.53133 0.372548 0
M  V30 6289 C 599.908 -1.93704 -0.271693 0
M  V30 6290 C 600.288 -1.30667 -1.65799 0
M  V30 6291 O 599.636 -0.46838 -2.23648 0
M  V30 6292 C 599.846 -3.47576 -0.314903 0
M  V30 6293 C 601.194 -4.20998 -0.551912 0
M  V30 6294 O 602.218 -3.53994 -0.39582 0
M  V30 6295 O 601.077 -5.39748 -0.85639 0
M  V30 6296 H 598.171 -0.810457 -0.164586 0
M  V30 6297 H 600.717 -1.6427 0.425838 0
M  V30 6298 H 599.489 -3.85749 0.656792 0
M  V30 6299 H 599.112 -3.83264 -1.05804 0
M  V30 6300 N 600.109 -0.101901 -1.5727 0
M  V30 6301 C 601.355 0.561027 -1.94885 0
M  V30 6302 C 601.688 1.6741 -0.984258 0
M  V30 6303 O 600.963 1.94491 -0.0184767 0
M  V30 6304 C 601.246 1.10982 -3.42571 0
M  V30 6305 C 601.099 0.00133418 -4.498 0
M  V30 6306 C 602.418 2.00608 -3.9172 0
M  V30 6307 H 599.537 0.202467 -0.708644 0
M  V30 6308 H 602.179 -0.173992 -1.89202 0
M  V30 6309 H 600.329 1.73621 -3.47546 0
M  V30 6310 H 602.001 -0.63322 -4.56933 0
M  V30 6311 H 600.244 -0.664143 -4.28686 0
M  V30 6312 H 600.915 0.426253 -5.50352 0
M  V30 6313 H 603.391 1.47864 -3.88941 0
M  V30 6314 H 602.267 2.3593 -4.95609 0
M  V30 6315 H 602.528 2.92608 -3.3141 0
M  V30 6316 N 601.587 1.56661 0.17182 0
M  V30 6317 C 602.815 1.861 0.904115 0
M  V30 6318 C 603.23 0.687227 1.75848 0
M  V30 6319 O 602.587 -0.343671 1.79235 0
M  V30 6320 C 602.638 3.14568 1.78127 0
M  V30 6321 O 602.359 4.27422 0.961366 0
M  V30 6322 C 603.86 3.5735 2.62327 0
M  V30 6323 H 601.08 0.617445 0.262684 0
M  V30 6324 H 603.624 2.03775 0.172068 0
M  V30 6325 H 601.779 2.98721 2.46666 0
M  V30 6326 H 602.193 5.00725 1.56123 0
M  V30 6327 H 603.667 4.50144 3.1949 0
M  V30 6328 H 604.144 2.81445 3.37173 0
M  V30 6329 H 604.75 3.75807 1.99121 0
M  V30 6330 N 603.065 -0.440357 1.51323 0
M  V30 6331 C 604.312 -1.19004 1.63842 0
M  V30 6332 C 604.64 -1.91266 0.35321 0
M  V30 6333 O 603.895 -1.84143 -0.662565 0
M  V30 6334 C 604.194 -2.2339 2.78984 0
M  V30 6335 C 603.86 -1.68162 4.18369 0
M  V30 6336 C 602.522 -1.52823 4.56288 0
M  V30 6337 C 604.874 -1.27524 5.05358 0
M  V30 6338 C 602.202 -0.953157 5.78906 0
M  V30 6339 C 604.554 -0.714474 6.28552 0
M  V30 6340 C 603.218 -0.547961 6.65247 0
M  V30 6341 H 602.488 -0.435468 0.59954 0
M  V30 6342 H 605.135 -0.481538 1.85347 0
M  V30 6343 H 603.44 -3.00267 2.51688 0
M  V30 6344 H 605.137 -2.81211 2.85869 0
M  V30 6345 H 601.727 -1.81077 3.8847 0
M  V30 6346 H 605.911 -1.38197 4.76671 0
M  V30 6347 H 601.167 -0.811882 6.05986 0
M  V30 6348 H 605.341 -0.391059 6.95301 0
M  V30 6349 H 602.968 -0.100222 7.60134 0
M  V30 6350 N 604.543 -1.41418 -0.695603 0
M  V30 6351 C 605.771 -1.4413 -1.48439 0
M  V30 6352 C 606.186 -0.0465698 -1.88743 0
M  V30 6353 O 605.543 0.934117 -1.56782 0
M  V30 6354 C 605.594 -2.34998 -2.74696 0
M  V30 6355 O 605.315 -3.69043 -2.36091 0
M  V30 6356 C 606.816 -2.46513 -3.68438 0
M  V30 6357 H 604.036 -0.490905 -0.457442 0
M  V30 6358 H 606.58 -1.85702 -0.856454 0
M  V30 6359 H 604.735 -1.96735 -3.33728 0
M  V30 6360 H 605.149 -4.17505 -3.17474 0
M  V30 6361 H 606.623 -3.1426 -4.53811 0
M  V30 6362 H 607.1 -1.49638 -4.12922 0
M  V30 6363 H 607.706 -2.85412 -3.1531 0
M  V30 6364 N 606.021 0.929856 -1.27246 0
M  V30 6365 C 607.251 1.70895 -1.16096 0
M  V30 6366 C 607.659 1.87039 0.285122 0
M  V30 6367 O 607.002 1.38557 1.20614 0
M  V30 6368 C 607.064 3.12919 -1.7698 0
M  V30 6369 C 606.728 3.2012 -3.26148 0
M  V30 6370 C 607.725 3.02533 -4.22812 0
M  V30 6371 C 605.41 3.43148 -3.66817 0
M  V30 6372 C 607.404 3.07861 -5.58122 0
M  V30 6373 C 605.091 3.48109 -5.02258 0
M  V30 6374 C 606.089 3.30483 -5.97721 0
M  V30 6375 O 605.777 3.35175 -7.30694 0
M  V30 6376 H 605.509 0.54152 -0.404639 0
M  V30 6377 H 608.063 1.17342 -1.68582 0
M  V30 6378 H 606.293 3.67945 -1.18969 0
M  V30 6379 H 607.982 3.72787 -1.60576 0
M  V30 6380 H 608.748 2.84586 -3.92728 0
M  V30 6381 H 604.627 3.55918 -2.9299 0
M  V30 6382 H 608.171 2.94021 -6.32612 0
M  V30 6383 H 604.068 3.65579 -5.31998 0
M  V30 6384 H 604.836 3.51644 -7.39114 0
M  V30 6385 N 607.499 1.09233 1.13605 0
M  V30 6386 C 608.724 0.849067 1.89224 0
M  V30 6387 C 609.149 -0.593875 1.78479 0
M  V30 6388 O 608.507 -1.41703 1.13092 0
M  V30 6389 C 608.555 1.28642 3.36873 0
M  V30 6390 O 607.659 0.44363 4.10007 0
M  V30 6391 H 607 0.30767 0.588417 0
M  V30 6392 H 609.53 1.45595 1.43748 0
M  V30 6393 H 609.54 1.27096 3.87699 0
M  V30 6394 H 608.215 2.33729 3.44011 0
M  V30 6395 H 606.792 0.523241 3.69211 0
M  V30 6396 N 608.977 -1.30795 0.87923 0
M  V30 6397 C 609.927 -2.25838 0.313276 0
M  V30 6398 C 610.911 -1.51025 -0.55499 0
M  V30 6399 O 612.103 -1.72413 -0.400353 0
M  V30 6400 C 609.232 -3.39981 -0.476204 0
M  V30 6401 C 608.318 -4.22154 0.405826 0
M  V30 6402 N 608.709 -4.82934 1.50362 0
M  V30 6403 C 607.007 -4.45552 0.199909 0
M  V30 6404 C 607.708 -5.44444 2.0483 0
M  V30 6405 N 606.684 -5.26723 1.34403 0
M  V30 6406 H 610.486 -2.70374 1.15218 0
M  V30 6407 H 608 -1.45168 0.728003 0
M  V30 6408 H 609.997 -4.07108 -0.898251 0
M  V30 6409 H 608.657 -2.96986 -1.31261 0
M  V30 6410 H 609.668 -4.82319 1.8865 0
M  V30 6411 H 606.345 -4.13169 -0.599795 0
M  V30 6412 H 607.735 -6.02701 2.96986 0
M  V30 6413 N 610.455 -0.639598 -1.44038 0
M  V30 6414 C 611.702 -0.14748 -2.01962 0
M  V30 6415 C 612.03 1.23372 -1.50365 0
M  V30 6416 O 611.285 1.8345 -0.681501 0
M  V30 6417 C 611.584 -0.0925348 -3.5728 0
M  V30 6418 C 611.25 -1.41365 -4.28167 0
M  V30 6419 C 609.912 -1.77545 -4.47248 0
M  V30 6420 C 612.264 -2.2853 -4.68427 0
M  V30 6421 C 609.592 -3.00583 -5.03852 0
M  V30 6422 C 611.944 -3.50846 -5.26393 0
M  V30 6423 C 610.608 -3.8724 -5.43692 0
M  V30 6424 H 609.878 -0.0539666 -0.739032 0
M  V30 6425 H 612.525 -0.827599 -1.72694 0
M  V30 6426 H 610.83 0.670987 -3.86012 0
M  V30 6427 H 612.527 0.304891 -3.99839 0
M  V30 6428 H 609.117 -1.1221 -4.13651 0
M  V30 6429 H 613.301 -2.0187 -4.5339 0
M  V30 6430 H 608.557 -3.28846 -5.15432 0
M  V30 6431 H 612.731 -4.18616 -5.56537 0
M  V30 6432 H 610.358 -4.8266 -5.87319 0
M  V30 6433 N 611.933 1.52934 -0.380664 0
M  V30 6434 C 612.896 2.24809 0.446473 0
M  V30 6435 C 613.896 1.26133 0.997347 0
M  V30 6436 O 615.086 1.50297 0.880714 0
M  V30 6437 C 612.218 2.99649 1.62553 0
M  V30 6438 H 613.411 2.99343 -0.182677 0
M  V30 6439 H 610.964 1.55736 -0.132618 0
M  V30 6440 H 611.699 2.29395 2.29235 0
M  V30 6441 H 611.484 3.72066 1.23732 0
M  V30 6442 H 612.974 3.54246 2.21133 0
M  V30 6443 N 613.412 0.11024 1.57214 0
M  V30 6444 C 614.658 -0.550684 1.9518 0
M  V30 6445 C 614.991 -1.66885 0.993122 0
M  V30 6446 O 614.266 -1.94479 0.0287907 0
M  V30 6447 C 614.549 -1.09163 3.43155 0
M  V30 6448 C 614.402 0.0225198 4.49794 0
M  V30 6449 C 615.721 -1.98527 3.92778 0
M  V30 6450 H 612.84 -0.198706 0.709708 0
M  V30 6451 H 615.482 0.184024 1.89107 0
M  V30 6452 H 613.632 -1.71775 3.48462 0
M  V30 6453 H 615.304 0.657443 4.56591 0
M  V30 6454 H 613.547 0.686868 4.28328 0
M  V30 6455 H 614.218 -0.39706 5.5057 0
M  V30 6456 H 616.694 -1.458 3.8972 0
M  V30 6457 H 615.57 -2.33298 4.96853 0
M  V30 6458 H 615.831 -2.90846 3.32958 0
M  V30 6459 N 614.89 -1.56749 -0.16351 0
M  V30 6460 C 616.301 -1.72039 -0.725216 0
M  V30 6461 C 616.652 -0.72202 -1.82432 0
M  V30 6462 O 615.777 0.114942 -2.16095 0
M  V30 6463 C 616.372 -3.11932 -1.32227 0
M  V30 6464 C 614.931 -3.28879 -1.83072 0
M  V30 6465 C 614.078 -2.67984 -0.712716 0
M  V30 6466 H 617.029 -1.58579 0.0619772 0
M  V30 6467 H 617.05 -3.11015 -2.19202 0
M  V30 6468 H 616.562 -3.84572 -0.522103 0
M  V30 6469 H 614.663 -2.61209 -2.65708 0
M  V30 6470 H 614.776 -4.36688 -1.97079 0
M  V30 6471 H 613.14 -2.28005 -1.13515 0
M  V30 6472 H 613.923 -3.43216 0.0757361 0
M  V30 6473 N 616.368 0.432326 -1.51554 0
M  V30 6474 C 617.3 1.54357 -1.6943 0
M  V30 6475 C 618.313 1.52311 -0.574897 0
M  V30 6476 O 619.502 1.56997 -0.849369 0
M  V30 6477 C 616.602 2.93273 -1.69836 0
M  V30 6478 C 615.775 3.19768 -2.98442 0
M  V30 6479 C 614.834 4.38433 -2.90969 0
M  V30 6480 O 613.86 4.36842 -3.64908 0
M  V30 6481 N 615.062 5.42276 -2.07163 0
M  V30 6482 H 617.827 1.39426 -2.65293 0
M  V30 6483 H 615.388 0.621331 -1.49503 0
M  V30 6484 H 617.38 3.70687 -1.62399 0
M  V30 6485 H 615.95 3.01777 -0.815456 0
M  V30 6486 H 615.17 2.30607 -3.19709 0
M  V30 6487 H 616.458 3.343 -3.83563 0
M  V30 6488 H 615.856 5.46407 -1.46477 0
M  V30 6489 H 614.413 6.18524 -2.05601 0
M  V30 6490 N 617.846 1.41785 0.688094 0
M  V30 6491 C 618.809 1.43936 1.78368 0
M  V30 6492 C 619.809 0.328866 1.57401 0
M  V30 6493 O 620.999 0.589093 1.63937 0
M  V30 6494 C 618.131 1.25804 3.16838 0
M  V30 6495 H 619.324 2.41472 1.77852 0
M  V30 6496 H 616.877 1.28037 0.896448 0
M  V30 6497 H 617.612 0.291386 3.22988 0
M  V30 6498 H 617.397 2.06272 3.33458 0
M  V30 6499 H 618.887 1.30162 3.96797 0
M  V30 6500 N 619.324 -0.923095 1.27737 0
M  V30 6501 C 620.271 -2.02432 1.1086 0
M  V30 6502 C 621.241 -1.66098 0.00835195 0
M  V30 6503 O 622.426 -1.90027 0.171542 0
M  V30 6504 C 619.566 -3.36476 0.766671 0
M  V30 6505 C 618.679 -3.85737 1.94501 0
M  V30 6506 C 617.814 -5.08249 1.54455 0
M  V30 6507 C 616.853 -5.49818 2.6901 0
M  V30 6508 N 615.99 -6.63524 2.29521 0
M  V30 6509 H 620.83 -2.16201 2.05089 0
M  V30 6510 H 618.367 -1.05909 1.02087 0
M  V30 6511 H 620.325 -4.13569 0.549223 0
M  V30 6512 H 618.955 -3.22502 -0.13867 0
M  V30 6513 H 618.007 -3.04883 2.27487 0
M  V30 6514 H 619.319 -4.12513 2.80419 0
M  V30 6515 H 618.473 -5.92857 1.28862 0
M  V30 6516 H 617.212 -4.83261 0.656534 0
M  V30 6517 H 616.217 -4.63757 2.95313 0
M  V30 6518 H 617.442 -5.76799 3.5844 0
M  V30 6519 H 615.388 -6.40185 1.43177 0
M  V30 6520 H 615.305 -6.89978 3.08977 0
M  V30 6521 H 616.573 -7.51461 2.07187 0
M  V30 6522 N 620.802 -1.09834 -1.13024 0
M  V30 6523 C 622.05 -0.835297 -1.8403 0
M  V30 6524 C 622.371 0.640944 -1.84165 0
M  V30 6525 O 621.641 1.46517 -1.30037 0
M  V30 6526 H 620.221 -0.306018 -0.681441 0
M  V30 6527 H 622.883 -1.38734 -1.36891 0
M  V30 6528 H 621.979 -1.19258 -2.88416 0
M  V30 6529 N 622.28 1.30327 -0.886154 0
M  V30 6530 C 623.228 2.30052 -0.343317 0
M  V30 6531 C 624.222 1.60212 0.550305 0
M  V30 6532 O 625.428 1.74674 0.434609 0
M  V30 6533 H 621.803 0.746306 -0.0923681 0
M  V30 6534 H 623.774 2.73294 -1.19804 0
M  V30 6535 C 622.523 3.45079 0.426107 0
M  V30 6536 H 621.846 3.99003 -0.25227 0
M  V30 6537 H 623.286 4.16931 0.771009 0
M  V30 6538 C 621.745 2.95195 1.62363 0
M  V30 6539 O 622.275 2.95323 2.723 0
M  V30 6540 N 620.481 2.51192 1.4612 0
M  V30 6541 H 620.028 2.51286 0.566832 0
M  V30 6542 H 619.986 2.18173 2.2638 0
M  V30 6543 N 623.758 0.647228 1.43697 0
M  V30 6544 C 624.706 -0.0600105 2.32523 0
M  V30 6545 C 625.7 -0.819277 1.48271 0
M  V30 6546 O 626.906 -0.730356 1.64517 0
M  V30 6547 H 623.281 -0.0381872 0.75103 0
M  V30 6548 H 625.252 0.706978 2.89904 0
M  V30 6549 C 624.001 -1.0169 3.32497 0
M  V30 6550 H 623.324 -0.442083 3.97348 0
M  V30 6551 H 624.764 -1.48095 3.97296 0
M  V30 6552 C 623.223 -2.11002 2.6264 0
M  V30 6553 O 623.753 -3.19302 2.4374 0
M  V30 6554 N 621.959 -1.87388 2.22113 0
M  V30 6555 H 621.506 -0.993174 2.37684 0
M  V30 6556 H 621.464 -2.60723 1.75701 0
M  V30 6557 N 625.236 -1.5273 0.388769 0
M  V30 6558 C 626.482 -2.01871 -0.193877 0
M  V30 6559 C 626.815 -1.27475 -1.46505 0
M  V30 6560 O 626.09 -0.375063 -1.90849 0
M  V30 6561 C 626.373 -3.5712 -0.462336 0
M  V30 6562 C 626.226 -4.42186 0.824091 0
M  V30 6563 C 627.545 -4.21881 -1.25319 0
M  V30 6564 H 624.664 -0.733764 -0.0689899 0
M  V30 6565 H 627.306 -1.82796 0.518231 0
M  V30 6566 H 625.456 -3.73504 -1.06896 0
M  V30 6567 H 627.128 -4.37554 1.46096 0
M  V30 6568 H 625.371 -4.09219 1.43952 0
M  V30 6569 H 626.042 -5.48828 0.590905 0
M  V30 6570 H 628.518 -4.0947 -0.73981 0
M  V30 6571 H 627.394 -5.30487 -1.40977 0
M  V30 6572 H 627.655 -3.79478 -2.26824 0
M  V30 6573 N 626.714 -0.118576 -1.57153 0
M  V30 6574 C 627.96 0.540326 -1.95469 0
M  V30 6575 C 628.293 1.66356 -1.00196 0
M  V30 6576 O 627.568 1.94461 -0.039104 0
M  V30 6577 C 627.851 1.07342 -3.43729 0
M  V30 6578 C 627.704 -0.0463732 -4.49776 0
M  V30 6579 C 629.023 1.96442 -3.93826 0
M  V30 6580 H 626.142 0.19494 -0.710751 0
M  V30 6581 H 628.784 -0.19405 -1.89006 0
M  V30 6582 H 626.934 1.69925 -3.49368 0
M  V30 6583 H 628.606 -0.681648 -4.56236 0
M  V30 6584 H 626.849 -0.709574 -4.27957 0
M  V30 6585 H 627.52 0.367856 -5.50773 0
M  V30 6586 H 629.996 1.43731 -3.90488 0
M  V30 6587 H 628.872 2.3066 -4.98084 0
M  V30 6588 H 629.133 2.89077 -3.34495 0
M  V30 6589 N 628.193 1.56834 0.155195 0
M  V30 6590 C 629.442 1.82088 0.867567 0
M  V30 6591 C 629.755 0.69849 1.82703 0
M  V30 6592 O 630.961 0.836407 2.58295 0
M  V30 6593 C 629.417 3.22707 1.59336 0
M  V30 6594 C 629.025 4.42859 0.676719 0
M  V30 6595 C 630.769 3.57242 2.293 0
M  V30 6596 C 628.676 5.74501 1.40367 0
M  V30 6597 H 627.606 0.679057 0.327715 0
M  V30 6598 H 630.257 1.83105 0.120351 0
M  V30 6599 H 628.639 3.16054 2.38591 0
M  V30 6600 H 629.813 4.60731 -0.0800196 0
M  V30 6601 H 628.128 4.16311 0.0859129 0
M  V30 6602 H 630.725 4.52847 2.84312 0
M  V30 6603 H 631.068 2.82901 3.05406 0
M  V30 6604 H 631.601 3.6552 1.56972 0
M  V30 6605 H 628.34 6.51915 0.684623 0
M  V30 6606 H 627.86 5.60579 2.13332 0
M  V30 6607 H 629.539 6.17016 1.94681 0
M  V30 6608 N 629.671 -0.424282 1.51781 0
M  V30 6609 C 630.899 -1.1947 1.68921 0
M  V30 6610 C 631.314 -1.84683 0.39213 0
M  V30 6611 O 630.671 -1.71261 -0.630554 0
M  V30 6612 C 630.722 -2.26909 2.81416 0
M  V30 6613 O 630.443 -1.64361 4.061 0
M  V30 6614 C 631.944 -3.16945 3.09937 0
M  V30 6615 H 629.164 -0.359591 0.566511 0
M  V30 6616 H 631.708 -0.501139 1.98265 0
M  V30 6617 H 629.863 -2.91959 2.54635 0
M  V30 6618 H 630.277 -2.35468 4.68674 0
M  V30 6619 H 631.751 -3.88437 3.922 0
M  V30 6620 H 632.228 -3.78451 2.22871 0
M  V30 6621 H 632.834 -2.57581 3.38426 0
M  V30 6622 N 631.149 -1.42148 -0.680565 0
M  V30 6623 C 632.374 -1.45901 -1.47403 0
M  V30 6624 C 632.799 -0.0700985 -1.87969 0
M  V30 6625 O 632.157 0.930145 -1.55621 0
M  V30 6626 C 632.205 -2.38661 -2.70321 0
M  V30 6627 O 631.309 -1.85399 -3.68376 0
M  V30 6628 H 630.65 -0.494565 -0.443059 0
M  V30 6629 H 633.18 -1.86774 -0.835251 0
M  V30 6630 H 633.19 -2.55046 -3.18458 0
M  V30 6631 H 631.865 -3.39571 -2.40134 0
M  V30 6632 H 630.442 -1.78541 -3.2738 0
M  V30 6633 N 632.627 0.916307 -1.28225 0
M  V30 6634 C 633.857 1.69654 -1.17902 0
M  V30 6635 C 634.265 1.87331 0.265268 0
M  V30 6636 O 633.608 1.39828 1.19137 0
M  V30 6637 C 633.67 3.11024 -1.80289 0
M  V30 6638 C 633.334 3.16643 -3.29525 0
M  V30 6639 C 634.331 2.98032 -4.25997 0
M  V30 6640 C 632.016 3.39238 -3.70436 0
M  V30 6641 C 634.01 3.01924 -5.61356 0
M  V30 6642 C 631.697 3.42762 -5.05922 0
M  V30 6643 C 632.695 3.24125 -6.01192 0
M  V30 6644 O 632.383 3.27406 -7.34208 0
M  V30 6645 H 632.115 0.537197 -0.41036 0
M  V30 6646 H 634.669 1.15547 -1.69817 0
M  V30 6647 H 632.899 3.66662 -1.22865 0
M  V30 6648 H 634.588 3.71063 -1.6452 0
M  V30 6649 H 635.354 2.80405 -3.95725 0
M  V30 6650 H 631.233 3.52791 -2.96749 0
M  V30 6651 H 634.777 2.87295 -6.35694 0
M  V30 6652 H 630.674 3.59916 -5.35846 0
M  V30 6653 H 631.442 3.43784 -7.42802 0
M  V30 6654 N 634.105 1.10431 1.1244 0
M  V30 6655 C 635.038 0.696987 2.17296 0
M  V30 6656 C 636.016 -0.301673 1.59777 0
M  V30 6657 O 637.2 -0.200583 1.8743 0
M  V30 6658 C 634.327 0.0284094 3.38688 0
M  V30 6659 C 633.373 0.990536 4.14838 0
M  V30 6660 S 634.206 2.50785 4.73146 0
M  V30 6661 C 635.362 1.85198 5.97873 0
M  V30 6662 H 635.595 1.58523 2.51511 0
M  V30 6663 H 633.128 0.921312 1.239 0
M  V30 6664 H 635.086 -0.351009 4.08997 0
M  V30 6665 H 633.747 -0.836629 3.02753 0
M  V30 6666 H 632.94 0.469991 5.01804 0
M  V30 6667 H 632.542 1.31186 3.50237 0
M  V30 6668 H 634.834 1.18217 6.67106 0
M  V30 6669 H 635.777 2.7012 6.54554 0
M  V30 6670 H 636.185 1.31653 5.48933 0
M  V30 6671 N 635.583 -1.29855 0.893053 0
M  V30 6672 C 636.811 -1.99976 0.530788 0
M  V30 6673 C 637.226 -1.66889 -0.882799 0
M  V30 6674 O 636.583 -0.910352 -1.58173 0
M  V30 6675 C 636.634 -3.54547 0.705587 0
M  V30 6676 O 636.355 -3.86458 2.06353 0
M  V30 6677 C 637.856 -4.41937 0.347387 0
M  V30 6678 H 635.076 -0.639129 0.204339 0
M  V30 6679 H 637.62 -1.65549 1.20057 0
M  V30 6680 H 635.775 -3.87311 0.0830685 0
M  V30 6681 H 636.189 -4.81146 2.08803 0
M  V30 6682 H 637.663 -5.4954 0.520557 0
M  V30 6683 H 638.14 -4.33339 -0.715139 0
M  V30 6684 H 638.746 -4.14633 0.946567 0
M  V30 6685 N 637.061 -0.65484 -1.43351 0
M  V30 6686 C 638.009 0.0476784 -2.32551 0
M  V30 6687 C 639.003 0.811403 -1.48703 0
M  V30 6688 O 640.209 0.721621 -1.64902 0
M  V30 6689 H 636.584 0.0342038 -0.751222 0
M  V30 6690 H 638.555 -0.722342 -2.89525 0
M  V30 6691 C 637.304 0.999251 -3.33032 0
M  V30 6692 H 636.627 0.421005 -3.97577 0
M  V30 6693 H 638.067 1.45986 -3.98076 0
M  V30 6694 C 636.526 2.09606 -2.63756 0
M  V30 6695 O 637.056 3.18004 -2.4543 0
M  V30 6696 N 635.262 1.86207 -2.23103 0
M  V30 6697 H 634.809 0.980555 -2.38208 0
M  V30 6698 H 634.767 2.59787 -1.77081 0
M  V30 6699 N 638.539 1.52521 -0.396863 0
M  V30 6700 C 639.955 1.5953 -0.0471659 0
M  V30 6701 C 640.155 1.41044 1.43906 0
M  V30 6702 O 639.211 1.23122 2.20448 0
M  V30 6703 C 640.524 2.95972 -0.531113 0
M  V30 6704 C 642.072 3.09172 -0.488024 0
M  V30 6705 C 642.547 4.48075 -0.948281 0
M  V30 6706 N 644.038 4.54281 -0.9046 0
M  V30 6707 C 644.773 5.60007 -1.23205 0
M  V30 6708 N 644.269 6.73343 -1.63036 0
M  V30 6709 N 646.062 5.50151 -1.15282 0
M  V30 6710 H 638.213 1.62786 -1.36435 0
M  V30 6711 H 640.476 0.76514 -0.559701 0
M  V30 6712 H 640.182 3.14741 -1.56942 0
M  V30 6713 H 640.056 3.77143 0.0657922 0
M  V30 6714 H 642.443 2.90095 0.541211 0
M  V30 6715 H 642.524 2.29937 -1.12083 0
M  V30 6716 H 642.168 4.67894 -1.97578 0
M  V30 6717 H 642.098 5.25788 -0.292412 0
M  V30 6718 H 644.589 3.72918 -0.6116 0
M  V30 6719 H 644.902 7.49992 -1.86365 0
M  V30 6720 H 643.247 6.74655 -1.66929 0
M  V30 6721 H 646.438 4.6049 -0.840602 0
M  V30 6722 H 646.611 6.32444 -1.41133 0
M  V30 6723 N 640.017 0.126909 1.57088 0
M  V30 6724 C 641.265 -0.528123 1.95078 0
M  V30 6725 C 641.586 -1.66708 1.0116 0
M  V30 6726 O 640.856 -1.95777 0.0693527 0
M  V30 6727 H 639.436 -0.198087 0.720257 0
M  V30 6728 H 642.098 0.197703 1.93895 0
M  V30 6729 H 641.194 -0.917507 2.98309 0
M  V30 6730 N 641.495 -1.56914 -0.146875 0
M  V30 6731 C 642.742 -1.83356 -0.859467 0
M  V30 6732 C 643.07 -0.707811 -1.81164 0
M  V30 6733 O 642.325 0.303155 -1.93338 0
M  V30 6734 C 642.624 -3.16128 -1.66727 0
M  V30 6735 C 642.29 -4.42586 -0.861881 0
M  V30 6736 C 640.952 -4.76929 -0.639687 0
M  V30 6737 C 643.304 -5.20344 -0.298643 0
M  V30 6738 C 640.632 -5.86491 0.156451 0
M  V30 6739 C 642.984 -6.30742 0.484536 0
M  V30 6740 C 641.648 -6.63635 0.717306 0
M  V30 6741 H 640.918 -0.670947 -0.314501 0
M  V30 6742 H 643.565 -1.91104 -0.123108 0
M  V30 6743 H 641.87 -3.03831 -2.47374 0
M  V30 6744 H 643.567 -3.33802 -2.2221 0
M  V30 6745 H 640.157 -4.15662 -1.04513 0
M  V30 6746 H 644.341 -4.94186 -0.457585 0
M  V30 6747 H 639.597 -6.10419 0.346292 0
M  V30 6748 H 643.771 -6.90188 0.928105 0
M  V30 6749 H 641.398 -7.48367 1.33607 0
M  V30 6750 N 642.974 0.416227 -1.52004 0
M  V30 6751 C 644.204 1.18401 -1.69307 0
M  V30 6752 C 644.612 1.84943 -0.399072 0
M  V30 6753 O 643.955 1.72406 0.634177 0
M  V30 6754 C 644.017 2.29465 -2.76742 0
M  V30 6755 C 643.681 1.83117 -4.18709 0
M  V30 6756 C 644.678 1.32286 -5.02789 0
M  V30 6757 C 642.363 1.90167 -4.64911 0
M  V30 6758 C 644.357 0.891178 -6.31139 0
M  V30 6759 C 642.044 1.4661 -5.93253 0
M  V30 6760 C 643.042 0.961696 -6.76196 0
M  V30 6761 O 642.73 0.532388 -8.02135 0
M  V30 6762 H 642.462 0.362098 -0.570843 0
M  V30 6763 H 645.016 0.496764 -1.99302 0
M  V30 6764 H 643.246 3.01531 -2.42107 0
M  V30 6765 H 644.935 2.91252 -2.82713 0
M  V30 6766 H 645.701 1.26218 -4.68288 0
M  V30 6767 H 641.58 2.28371 -4.00459 0
M  V30 6768 H 645.124 0.496788 -6.95829 0
M  V30 6769 H 641.021 1.52355 -6.27263 0
M  V30 6770 H 641.789 0.656339 -8.15864 0
M  V30 6771 N 644.452 1.42507 0.673017 0
M  V30 6772 C 645.415 1.4582 1.76831 0
M  V30 6773 C 646.415 0.345542 1.57043 0
M  V30 6774 O 647.605 0.606447 1.63303 0
M  V30 6775 C 644.737 1.29158 3.15485 0
M  V30 6776 H 645.93 2.43345 1.7528 0
M  V30 6777 H 643.483 1.28981 0.882817 0
M  V30 6778 H 644.218 0.325626 3.22661 0
M  V30 6779 H 644.003 2.09797 3.31252 0
M  V30 6780 H 645.493 1.34363 3.95394 0
M  V30 6781 N 645.93 -0.909495 1.28709 0
M  V30 6782 C 647.207 -1.63865 1.06806 0
M  V30 6783 C 647.587 -2.07445 -0.391143 0
M  V30 6784 O 646.935 -1.82269 -1.37805 0
M  V30 6785 C 647.145 -2.82692 2.04661 0
M  V30 6786 C 648.493 -3.5361 2.35042 0
M  V30 6787 O 649.517 -2.92847 2.02779 0
M  V30 6788 O 648.376 -4.63131 2.90124 0
M  V30 6789 H 645.47 -0.719065 0.408502 0
M  V30 6790 H 648.016 -0.958424 1.40044 0
M  V30 6791 H 646.788 -2.47614 3.0299 0
M  V30 6792 H 646.411 -3.58426 1.72095 0
M  V30 6793 N 647.408 -1.11026 -1.11852 0
M  V30 6794 C 648.355 -0.764662 -2.17765 0
M  V30 6795 C 649.325 0.261854 -1.64023 0
M  V30 6796 O 650.51 0.139748 -1.90288 0
M  V30 6797 C 647.65 -0.209317 -3.44465 0
M  V30 6798 C 646.763 -1.29187 -4.12231 0
M  V30 6799 C 645.898 -0.697523 -5.266 0
M  V30 6800 C 644.937 -1.76023 -5.86244 0
M  V30 6801 N 644.074 -1.18569 -6.92016 0
M  V30 6802 H 648.914 -1.67202 -2.46673 0
M  V30 6803 H 646.451 -0.835065 -1.21099 0
M  V30 6804 H 648.409 0.130599 -4.16996 0
M  V30 6805 H 647.039 0.661251 -3.15955 0
M  V30 6806 H 646.091 -1.74881 -3.37818 0
M  V30 6807 H 647.403 -2.09607 -4.52622 0
M  V30 6808 H 646.557 -0.307412 -6.05921 0
M  V30 6809 H 645.296 0.138044 -4.87505 0
M  V30 6810 H 644.301 -2.1597 -5.05606 0
M  V30 6811 H 645.526 -2.59875 -6.27409 0
M  V30 6812 H 643.472 -0.371695 -6.54946 0
M  V30 6813 H 643.389 -1.92666 -7.31038 0
M  V30 6814 H 644.657 -0.82233 -7.7515 0
M  V30 6815 N 648.886 1.2938 -0.899927 0
M  V30 6816 C 649.818 2.26737 -0.335139 0
M  V30 6817 C 650.831 1.54316 0.518681 0
M  V30 6818 O 652.02 1.75313 0.335803 0
M  V30 6819 C 649.12 3.34558 0.540774 0
M  V30 6820 C 648.293 4.36455 -0.287372 0
M  V30 6821 C 647.352 5.2361 0.52141 0
M  V30 6822 O 646.378 5.69167 -0.0611735 0
M  V30 6823 N 647.58 5.50985 1.82745 0
M  V30 6824 H 650.345 2.75838 -1.17191 0
M  V30 6825 H 647.906 1.42716 -0.764438 0
M  V30 6826 H 649.898 3.89794 1.08825 0
M  V30 6827 H 648.468 2.85272 1.27823 0
M  V30 6828 H 647.688 3.80875 -1.01626 0
M  V30 6829 H 648.976 5.01573 -0.854518 0
M  V30 6830 H 648.374 5.15781 2.32349 0
M  V30 6831 H 646.931 6.09036 2.32204 0
M  V30 6832 N 650.364 0.662433 1.43002 0
M  V30 6833 C 651.589 0.186003 2.06564 0
M  V30 6834 C 652.014 -1.14314 1.49379 0
M  V30 6835 O 651.372 -1.70824 0.607346 0
M  V30 6836 C 651.42 0.118269 3.60406 0
M  V30 6837 O 650.524 -0.916859 4.02079 0
M  V30 6838 H 649.865 0.0990981 0.656563 0
M  V30 6839 H 652.395 0.907958 1.8335 0
M  V30 6840 H 652.405 -0.0619981 4.07953 0
M  V30 6841 H 651.08 1.08849 4.01403 0
M  V30 6842 H 649.657 -0.708635 3.66105 0
M  V30 6843 N 651.842 -1.52309 0.404946 0
M  V30 6844 C 653.07 -2.06185 -0.171818 0
M  V30 6845 C 653.485 -1.27536 -1.39212 0
M  V30 6846 O 652.842 -0.326112 -1.79563 0
M  V30 6847 C 652.893 -3.57647 -0.526417 0
M  V30 6848 O 652.614 -4.3332 0.645417 0
M  V30 6849 C 654.115 -4.27925 -1.15736 0
M  V30 6850 H 651.335 -0.670632 -0.0222328 0
M  V30 6851 H 653.879 -1.96259 0.574692 0
M  V30 6852 H 652.034 -3.67595 -1.22282 0
M  V30 6853 H 652.448 -5.23328 0.35042 0
M  V30 6854 H 653.922 -5.35093 -1.35572 0
M  V30 6855 H 654.399 -3.84134 -2.12926 0
M  V30 6856 H 655.005 -4.22335 -0.501281 0
M  V30 6857 N 653.32 -0.135238 -1.57019 0
M  V30 6858 C 654.567 0.518794 -1.95742 0
M  V30 6859 C 654.895 1.65642 -1.01947 0
M  V30 6860 O 654.15 1.95645 -0.0464016 0
M  V30 6861 C 654.449 1.07694 -3.40788 0
M  V30 6862 C 654.115 0.058992 -4.50861 0
M  V30 6863 C 652.777 -0.220872 -4.80693 0
M  V30 6864 C 655.129 -0.633856 -5.17331 0
M  V30 6865 C 652.457 -1.19959 -5.74305 0
M  V30 6866 C 654.809 -1.60131 -6.11997 0
M  V30 6867 C 653.473 -1.889 -6.40213 0
M  V30 6868 H 652.743 0.18984 -0.716269 0
M  V30 6869 H 655.39 -0.219581 -1.90237 0
M  V30 6870 H 653.695 1.89241 -3.43067 0
M  V30 6871 H 655.392 1.59137 -3.68071 0
M  V30 6872 H 651.982 0.287304 -4.27636 0
M  V30 6873 H 656.166 -0.430823 -4.94427 0
M  V30 6874 H 651.422 -1.42905 -5.94465 0
M  V30 6875 H 655.596 -2.14376 -6.62583 0
M  V30 6876 H 653.223 -2.64891 -7.12556 0
M  V30 6877 N 654.798 1.5699 0.138552 0
M  V30 6878 C 655.761 1.97984 1.15478 0
M  V30 6879 C 656.761 0.867416 1.35398 0
M  V30 6880 O 657.951 1.13387 1.32246 0
M  V30 6881 C 655.083 2.3031 2.51337 0
M  V30 6882 H 656.276 2.88953 0.802896 0
M  V30 6883 H 653.829 1.51555 0.382189 0
M  V30 6884 H 654.564 1.42159 2.91481 0
M  V30 6885 H 654.349 3.11425 2.38237 0
M  V30 6886 H 655.839 2.62834 3.24512 0
M  V30 6887 N 656.276 -0.40816 1.52223 0
M  V30 6888 C 657.687 -0.986929 1.58482 0
M  V30 6889 C 658.038 -1.91521 0.425917 0
M  V30 6890 O 657.163 -2.11593 -0.453593 0
M  V30 6891 C 657.758 -1.7967 2.87235 0
M  V30 6892 C 656.317 -2.32549 2.9597 0
M  V30 6893 C 655.464 -1.12558 2.53428 0
M  V30 6894 H 658.415 -0.188362 1.57578 0
M  V30 6895 H 658.436 -2.65417 2.72642 0
M  V30 6896 H 657.948 -1.12082 3.71563 0
M  V30 6897 H 656.049 -3.03505 2.16137 0
M  V30 6898 H 656.162 -2.63348 4.00231 0
M  V30 6899 H 654.526 -1.47984 2.07299 0
M  V30 6900 H 655.309 -0.465351 3.40131 0
M  V30 6901 N 657.755 -1.42862 -0.66545 0
M  V30 6902 C 658.98 -1.47456 -1.45848 0
M  V30 6903 C 659.405 -0.0900312 -1.87884 0
M  V30 6904 O 658.763 0.913587 -1.56599 0
M  V30 6905 C 658.811 -2.41514 -2.67774 0
M  V30 6906 O 657.915 -1.89296 -3.66389 0
M  V30 6907 H 657.256 -0.499236 -0.437789 0
M  V30 6908 H 659.786 -1.8765 -0.815394 0
M  V30 6909 H 659.796 -2.58409 -3.15735 0
M  V30 6910 H 658.471 -3.42099 -2.36519 0
M  V30 6911 H 657.048 -1.82003 -3.25468 0
M  V30 6912 N 659.233 0.902656 -1.29189 0
M  V30 6913 C 660.48 1.65287 -1.16989 0
M  V30 6914 C 660.808 1.92485 0.279232 0
M  V30 6915 O 660.063 1.53143 1.21843 0
M  V30 6916 C 660.362 3.011 -1.92545 0
M  V30 6917 C 660.028 2.93521 -3.42281 0
M  V30 6918 C 658.69 2.91161 -3.83117 0
M  V30 6919 C 661.042 2.82947 -4.3771 0
M  V30 6920 C 658.37 2.76043 -5.17704 0
M  V30 6921 C 660.722 2.69368 -5.72384 0
M  V30 6922 C 659.386 2.65373 -6.12482 0
M  V30 6923 H 658.656 0.604828 -0.428094 0
M  V30 6924 H 661.303 1.05084 -1.60092 0
M  V30 6925 H 659.608 3.65153 -1.42024 0
M  V30 6926 H 661.305 3.58073 -1.80512 0
M  V30 6927 H 657.895 2.96158 -3.09819 0
M  V30 6928 H 662.079 2.83849 -4.07116 0
M  V30 6929 H 657.335 2.71352 -5.47885 0
M  V30 6930 H 661.509 2.60156 -6.45981 0
M  V30 6931 H 659.136 2.53415 -7.16718 0
M  V30 6932 N 660.711 1.11618 1.11262 0
M  V30 6933 C 661.641 0.79846 2.19424 0
M  V30 6934 C 662.622 -0.234003 1.68483 0
M  V30 6935 O 663.807 -0.0970704 1.93957 0
M  V30 6936 C 660.937 0.242892 3.4645 0
M  V30 6937 C 659.891 1.20744 4.10615 0
M  V30 6938 C 659.217 0.512494 5.32238 0
M  V30 6939 C 660.517 2.55884 4.55325 0
M  V30 6940 H 662.211 1.70286 2.46258 0
M  V30 6941 H 659.757 0.820195 1.18359 0
M  V30 6942 H 661.71 0.00840447 4.21399 0
M  V30 6943 H 660.434 -0.696811 3.1908 0
M  V30 6944 H 659.093 1.42759 3.37662 0
M  V30 6945 H 658.741 -0.432075 5.01141 0
M  V30 6946 H 658.441 1.15583 5.7612 0
M  V30 6947 H 659.965 0.286842 6.09926 0
M  V30 6948 H 661.379 2.37946 5.21588 0
M  V30 6949 H 659.776 3.16216 5.10027 0
M  V30 6950 H 660.846 3.14968 3.68678 0
M  V30 6951 N 662.189 -1.289 0.906776 0
M  V30 6952 C 663.119 -2.29932 0.406659 0
M  V30 6953 C 664.1 -1.6189 -0.522061 0
M  V30 6954 O 665.285 -1.8935 -0.431283 0
M  V30 6955 C 662.415 -3.45425 -0.360366 0
M  V30 6956 C 661.369 -4.25316 0.478574 0
M  V30 6957 C 660.695 -5.33076 -0.416373 0
M  V30 6958 C 661.995 -4.92739 1.7322 0
M  V30 6959 H 663.689 -2.72013 1.25097 0
M  V30 6960 H 661.235 -1.30768 0.602977 0
M  V30 6961 H 663.188 -4.15186 -0.721029 0
M  V30 6962 H 661.912 -3.02206 -1.23852 0
M  V30 6963 H 660.571 -3.57273 0.821662 0
M  V30 6964 H 660.219 -4.86101 -1.29287 0
M  V30 6965 H 659.919 -5.8743 0.141309 0
M  V30 6966 H 661.443 -6.05686 -0.773072 0
M  V30 6967 H 662.857 -5.54898 1.44086 0
M  V30 6968 H 661.254 -5.57057 2.23175 0
M  V30 6969 H 662.324 -4.17625 2.46408 0
M  V30 6970 N 663.667 -0.670007 -1.42649 0
M  V30 6971 C 664.615 0.0230106 -2.32589 0
M  V30 6972 C 665.609 0.795585 -1.49555 0
M  V30 6973 O 666.815 0.70409 -1.65658 0
M  V30 6974 H 663.19 0.0262342 -0.751542 0
M  V30 6975 H 665.161 -0.753009 -2.88743 0
M  V30 6976 C 663.91 0.963872 -3.34073 0
M  V30 6977 H 663.233 0.378813 -3.98001 0
M  V30 6978 H 664.673 1.41755 -3.99602 0
M  V30 6979 C 663.132 2.06797 -2.65964 0
M  V30 6980 O 663.662 3.15383 -2.48789 0
M  V30 6981 N 661.868 1.83831 -2.25066 0
M  V30 6982 H 661.415 0.955235 -2.39234 0
M  V30 6983 H 661.373 2.57895 -1.79827 0
M  V30 6984 N 665.145 1.52092 -0.413018 0
M  V30 6985 C 666.394 2.01041 0.16287 0
M  V30 6986 C 666.707 1.30288 1.45892 0
M  V30 6987 O 667.913 1.70075 2.11629 0
M  V30 6988 C 666.369 3.58283 0.340806 0
M  V30 6989 C 665.977 4.37955 -0.943377 0
M  V30 6990 C 667.721 4.15452 0.871774 0
M  V30 6991 C 665.628 5.86847 -0.732417 0
M  V30 6992 H 664.558 0.751224 0.0646414 0
M  V30 6993 H 667.209 1.75404 -0.539059 0
M  V30 6994 H 665.591 3.80266 1.10516 0
M  V30 6995 H 666.765 4.2773 -1.71418 0
M  V30 6996 H 665.08 3.92122 -1.40105 0
M  V30 6997 H 667.677 5.24375 1.0457 0
M  V30 6998 H 668.02 3.73057 1.84755 0
M  V30 6999 H 668.553 3.97452 0.166377 0
M  V30 7000 H 665.292 6.33609 -1.67986 0
M  V30 7001 H 664.812 5.998 -0.000980058 0
M  V30 7002 H 666.491 6.45906 -0.376105 0
M  V30 7003 N 666.623 0.143563 1.56945 0
M  V30 7004 C 667.57 -0.797433 2.16586 0
M  V30 7005 C 668.54 -1.24654 1.09775 0
M  V30 7006 O 669.725 -1.31968 1.37801 0
M  V30 7007 C 666.865 -2.03253 2.78895 0
M  V30 7008 C 665.978 -1.62954 4.00087 0
M  V30 7009 C 665.113 -2.81617 4.50406 0
M  V30 7010 C 664.152 -2.37675 5.64072 0
M  V30 7011 N 663.289 -3.49335 6.09023 0
M  V30 7012 H 668.129 -0.282023 2.96662 0
M  V30 7013 H 665.666 -0.127494 1.46546 0
M  V30 7014 H 667.624 -2.75653 3.13163 0
M  V30 7015 H 666.254 -2.52211 2.01469 0
M  V30 7016 H 665.306 -0.803322 3.71821 0
M  V30 7017 H 666.618 -1.26679 4.82446 0
M  V30 7018 H 665.772 -3.62212 4.86711 0
M  V30 7019 H 664.511 -3.21134 3.67048 0
M  V30 7020 H 663.516 -1.55519 5.27346 0
M  V30 7021 H 664.741 -1.99247 6.49213 0
M  V30 7022 H 662.687 -3.8848 5.28601 0
M  V30 7023 H 662.604 -3.17064 6.86299 0
M  V30 7024 H 663.872 -4.30297 6.49973 0
M  V30 7025 N 668.101 -1.57061 -0.130224 0
M  V30 7026 C 669.349 -1.83893 -0.838313 0
M  V30 7027 C 669.67 -0.727046 -1.80939 0
M  V30 7028 O 668.94 0.249927 -1.94299 0
M  V30 7029 H 667.52 -0.67846 -0.312573 0
M  V30 7030 H 670.182 -1.94529 -0.120224 0
M  V30 7031 H 669.278 -2.79419 -1.39038 0
M  V30 7032 N 669.579 0.400081 -1.52437 0
M  V30 7033 C 670.526 1.48803 -1.76426 0
M  V30 7034 C 671.496 1.5461 -0.607032 0
M  V30 7035 O 672.681 1.71041 -0.845563 0
M  V30 7036 C 669.821 2.86156 -1.92896 0
M  V30 7037 C 668.934 2.89587 -3.20567 0
M  V30 7038 C 668.069 4.18296 -3.27417 0
M  V30 7039 C 667.108 4.15736 -4.49255 0
M  V30 7040 N 666.245 5.36032 -4.53447 0
M  V30 7041 H 671.085 1.27649 -2.69276 0
M  V30 7042 H 668.622 0.619451 -1.33421 0
M  V30 7043 H 670.58 3.65901 -2.00429 0
M  V30 7044 H 669.21 3.05785 -1.03418 0
M  V30 7045 H 668.262 2.02278 -3.22161 0
M  V30 7046 H 669.574 2.83562 -4.10358 0
M  V30 7047 H 668.728 5.06439 -3.34072 0
M  V30 7048 H 667.467 4.27028 -2.35581 0
M  V30 7049 H 666.472 3.25982 -4.42737 0
M  V30 7050 H 667.697 4.08636 -5.42396 0
M  V30 7051 H 665.643 5.45415 -3.64498 0
M  V30 7052 H 665.56 5.32038 -5.37096 0
M  V30 7053 H 666.828 6.26104 -4.64343 0
M  V30 7054 N 671.057 1.43213 0.657864 0
M  V30 7055 C 672.004 1.48011 1.77092 0
M  V30 7056 C 672.974 0.330291 1.62783 0
M  V30 7057 O 674.159 0.536787 1.83094 0
M  V30 7058 C 671.299 1.40461 3.15222 0
M  V30 7059 C 670.412 2.65612 3.40697 0
M  V30 7060 C 669.547 2.50083 4.68649 0
M  V30 7061 C 668.586 3.70525 4.87214 0
M  V30 7062 N 667.723 3.53835 6.0642 0
M  V30 7063 H 672.563 2.43121 1.72326 0
M  V30 7064 H 670.1 1.20687 0.841013 0
M  V30 7065 H 672.058 1.34079 3.95068 0
M  V30 7066 H 670.688 0.489359 3.19069 0
M  V30 7067 H 669.74 2.82292 2.54982 0
M  V30 7068 H 671.052 3.5509 3.50303 0
M  V30 7069 H 670.206 2.41383 5.56614 0
M  V30 7070 H 668.945 1.58121 4.61356 0
M  V30 7071 H 667.95 3.79639 3.97686 0
M  V30 7072 H 669.175 4.63489 4.96341 0
M  V30 7073 H 667.121 2.64604 6.00267 0
M  V30 7074 H 667.038 4.36912 6.16963 0
M  V30 7075 H 668.306 3.48978 6.97019 0
M  V30 7076 N 672.536 -0.895792 1.29666 0
M  V30 7077 C 673.764 -1.68001 1.20761 0
M  V30 7078 C 674.179 -1.87379 -0.231187 0
M  V30 7079 O 673.536 -1.41359 -1.15429 0
M  V30 7080 C 673.587 -3.06236 1.92098 0
M  V30 7081 O 673.308 -2.8774 3.30359 0
M  V30 7082 C 674.809 -4.00652 1.89717 0
M  V30 7083 H 672.029 -0.524591 0.418384 0
M  V30 7084 H 674.573 -1.11995 1.71106 0
M  V30 7085 H 672.728 -3.59007 1.45578 0
M  V30 7086 H 673.142 -3.75359 3.66342 0
M  V30 7087 H 674.616 -4.95051 2.44189 0
M  V30 7088 H 675.093 -4.30424 0.873595 0
M  V30 7089 H 675.699 -3.53815 2.35998 0
M  V30 7090 N 674.014 -1.12206 -1.10668 0
M  V30 7091 C 675.239 -0.898938 -1.86906 0
M  V30 7092 C 675.664 0.546346 -1.79991 0
M  V30 7093 O 675.022 1.38655 -1.1681 0
M  V30 7094 C 675.07 -1.37529 -3.33344 0
M  V30 7095 O 674.174 -0.55218 -4.08687 0
M  V30 7096 H 673.515 -0.323163 -0.580053 0
M  V30 7097 H 676.045 -1.49355 -1.39837 0
M  V30 7098 H 676.055 -1.3733 -3.84193 0
M  V30 7099 H 674.73 -2.42767 -3.37693 0
M  V30 7100 H 673.307 -0.620947 -3.67694 0
M  V30 7101 N 675.492 1.28418 -0.913599 0
M  V30 7102 C 676.738 1.9527 -0.547484 0
M  V30 7103 C 677.071 1.71745 0.906486 0
M  V30 7104 O 676.346 1.03834 1.64465 0
M  V30 7105 C 676.629 3.49748 -0.857205 0
M  V30 7106 C 676.482 3.82675 -2.3639 0
M  V30 7107 C 677.801 4.3868 -0.353258 0
M  V30 7108 H 674.92 0.709236 -0.200381 0
M  V30 7109 H 677.562 1.51789 -1.14281 0
M  V30 7110 H 675.712 3.86915 -0.350548 0
M  V30 7111 H 677.384 3.55378 -2.94116 0
M  V30 7112 H 675.627 3.29724 -2.81894 0
M  V30 7113 H 676.298 4.90547 -2.53115 0
M  V30 7114 H 678.774 4.08584 -0.787288 0
M  V30 7115 H 677.65 5.45621 -0.599049 0
M  V30 7116 H 677.911 4.35753 0.746413 0
M  V30 7117 N 676.97 0.677563 1.42291 0
M  V30 7118 C 678.216 0.201272 2.01799 0
M  V30 7119 C 678.549 -1.19004 1.53465 0
M  V30 7120 O 677.824 -1.79953 0.738039 0
M  V30 7121 C 678.107 0.238968 3.59306 0
M  V30 7122 C 677.96 1.66594 4.17812 0
M  V30 7123 C 679.279 -0.411287 4.38174 0
M  V30 7124 H 676.398 0.0746114 0.733214 0
M  V30 7125 H 679.04 0.862872 1.69276 0
M  V30 7126 H 677.19 -0.324368 3.87144 0
M  V30 7127 H 678.862 2.28173 4.00917 0
M  V30 7128 H 677.105 2.20576 3.73536 0
M  V30 7129 H 677.776 1.64398 5.26951 0
M  V30 7130 H 680.252 0.0682804 4.16044 0
M  V30 7131 H 679.128 -0.354286 5.47755 0
M  V30 7132 H 679.389 -1.4893 4.1626 0
M  V30 7133 N 678.448 -1.51871 0.421078 0
M  V30 7134 C 679.395 -2.27334 -0.398508 0
M  V30 7135 C 680.365 -1.30241 -1.03085 0
M  V30 7136 O 681.55 -1.59121 -1.05285 0
M  V30 7137 C 678.69 -3.10664 -1.50272 0
M  V30 7138 C 677.803 -4.2273 -0.890122 0
M  V30 7139 C 676.938 -4.93399 -1.96803 0
M  V30 7140 C 675.977 -5.97409 -1.333 0
M  V30 7141 N 675.114 -6.61548 -2.35156 0
M  V30 7142 H 679.954 -2.96938 0.251411 0
M  V30 7143 H 677.491 -1.46472 0.135825 0
M  V30 7144 H 679.449 -3.57292 -2.15403 0
M  V30 7145 H 678.079 -2.43207 -2.1225 0
M  V30 7146 H 677.131 -3.80186 -0.127537 0
M  V30 7147 H 678.443 -4.97302 -0.386349 0
M  V30 7148 H 677.597 -5.43491 -2.69633 0
M  V30 7149 H 676.336 -4.18421 -2.50549 0
M  V30 7150 H 675.341 -5.46624 -0.59008 0
M  V30 7151 H 676.566 -6.74335 -0.803076 0
M  V30 7152 H 674.512 -5.89394 -2.88012 0
M  V30 7153 H 674.429 -7.31832 -1.89624 0
M  V30 7154 H 675.697 -7.16276 -3.0752 0
M  V30 7155 N 679.926 -0.151884 -1.56866 0
M  V30 7156 C 681.203 0.543328 -1.87902 0
M  V30 7157 C 681.583 1.82636 -1.05864 0
M  V30 7158 O 680.931 2.28028 -0.146868 0
M  V30 7159 C 681.141 0.804056 -3.39611 0
M  V30 7160 C 682.489 1.14267 -4.08935 0
M  V30 7161 O 683.513 0.893248 -3.44818 0
M  V30 7162 O 682.372 1.61229 -5.22176 0
M  V30 7163 H 679.466 0.277724 -0.778973 0
M  V30 7164 H 682.012 -0.188862 -1.68646 0
M  V30 7165 H 680.784 -0.103772 -3.91162 0
M  V30 7166 H 680.407 1.59025 -3.64413 0
M  V30 7167 N 681.404 1.57128 0.121893 0
M  V30 7168 C 682.629 1.89254 0.848385 0
M  V30 7169 C 683.054 0.743527 1.72781 0
M  V30 7170 O 682.412 -0.306056 1.78698 0
M  V30 7171 C 682.46 3.20113 1.66012 0
M  V30 7172 O 681.564 3.05815 2.76679 0
M  V30 7173 H 680.905 0.621103 0.234793 0
M  V30 7174 H 683.435 2.0433 0.10516 0
M  V30 7175 H 683.445 3.52761 2.04996 0
M  V30 7176 H 682.12 4.03336 1.01452 0
M  V30 7177 H 680.697 2.84627 2.40918 0
M  V30 7178 N 682.882 -0.391992 1.52647 0
M  V30 7179 C 684.131 -1.13449 1.6677 0
M  V30 7180 C 684.444 -1.91203 0.412399 0
M  V30 7181 O 685.65 -2.68013 0.433707 0
M  V30 7182 C 684.106 -2.06577 2.9471 0
M  V30 7183 C 683.714 -1.3426 4.27409 0
M  V30 7184 C 685.458 -2.80981 3.18198 0
M  V30 7185 C 683.365 -2.26136 5.46458 0
M  V30 7186 H 682.295 -0.427211 0.621295 0
M  V30 7187 H 684.946 -0.397522 1.79142 0
M  V30 7188 H 683.328 -2.83898 2.76076 0
M  V30 7189 H 684.502 -0.621856 4.56585 0
M  V30 7190 H 682.817 -0.718279 4.10158 0
M  V30 7191 H 685.414 -3.49898 4.04321 0
M  V30 7192 H 685.757 -3.44891 2.33144 0
M  V30 7193 H 686.29 -2.10754 3.37383 0
M  V30 7194 H 683.029 -1.66846 6.33911 0
M  V30 7195 H 682.549 -2.96134 5.21598 0
M  V30 7196 H 684.228 -2.86286 5.80215 0
M  V30 7197 N 684.36 -1.4356 -0.65026 0
M  V30 7198 C 685.29 -1.51758 -1.77459 0
M  V30 7199 C 686.271 -0.372019 -1.65982 0
M  V30 7200 O 687.456 -0.589627 -1.85033 0
M  V30 7201 C 684.586 -1.44302 -3.15902 0
M  V30 7202 C 683.54 -2.57138 -3.42146 0
M  V30 7203 C 682.866 -2.34735 -4.8042 0
M  V30 7204 C 684.166 -3.99373 -3.36598 0
M  V30 7205 H 685.86 -2.45863 -1.70855 0
M  V30 7206 H 683.406 -1.18333 -0.820566 0
M  V30 7207 H 685.359 -1.48641 -3.94314 0
M  V30 7208 H 684.083 -0.467026 -3.23244 0
M  V30 7209 H 682.742 -2.52157 -2.66106 0
M  V30 7210 H 682.39 -1.35372 -4.84441 0
M  V30 7211 H 682.09 -3.10375 -4.9894 0
M  V30 7212 H 683.614 -2.40862 -5.61086 0
M  V30 7213 H 685.028 -4.05826 -4.04942 0
M  V30 7214 H 683.425 -4.75063 -3.66654 0
M  V30 7215 H 684.495 -4.243 -2.34729 0
M  V30 7216 N 685.838 0.888903 -1.30139 0
M  V30 7217 C 686.748 2.02705 -1.18101 0
M  V30 7218 C 687.764 1.73702 -0.101809 0
M  V30 7219 O 688.94 1.98906 -0.315984 0
M  V30 7220 C 686.005 3.35616 -0.869651 0
M  V30 7221 C 685.066 3.78067 -2.03381 0
M  V30 7222 C 684.299 5.04635 -1.73721 0
M  V30 7223 O 684.522 5.66531 -0.663267 0
M  V30 7224 O 683.456 5.43399 -2.58845 0
M  V30 7225 H 687.282 2.15788 -2.13704 0
M  V30 7226 H 684.867 1.01426 -1.09695 0
M  V30 7227 H 686.749 4.15358 -0.711043 0
M  V30 7228 H 685.424 3.23651 0.0565002 0
M  V30 7229 H 684.331 2.99046 -2.24772 0
M  V30 7230 H 685.664 3.94631 -2.94155 0
M  V30 7231 N 687.317 1.12792 1.10072 0
M  V30 7232 C 688.249 0.757003 2.16338 0
M  V30 7233 C 689.262 -0.218144 1.61332 0
M  V30 7234 O 690.451 0.0010727 1.785 0
M  V30 7235 C 687.551 0.100303 3.38752 0
M  V30 7236 C 686.724 1.10586 4.2319 0
M  V30 7237 C 685.783 0.47609 5.24042 0
M  V30 7238 O 684.809 1.13418 5.57786 0
M  V30 7239 N 686.011 -0.754823 5.75572 0
M  V30 7240 H 688.776 1.6714 2.48766 0
M  V30 7241 H 686.337 1.02003 1.25726 0
M  V30 7242 H 688.329 -0.333092 4.03327 0
M  V30 7243 H 686.899 -0.716915 3.04268 0
M  V30 7244 H 686.119 1.71677 3.54853 0
M  V30 7245 H 687.407 1.78571 4.76435 0
M  V30 7246 H 686.805 -1.30838 5.50362 0
M  V30 7247 H 685.362 -1.13098 6.41913 0
M  V30 7248 N 688.795 -1.27931 0.920396 0
M  V30 7249 C 690.043 -1.94304 0.555906 0
M  V30 7250 C 690.364 -1.72753 -0.904519 0
M  V30 7251 O 689.634 -1.07104 -1.64029 0
M  V30 7252 H 688.214 -0.719001 0.202599 0
M  V30 7253 H 690.876 -1.55785 1.1712 0
M  V30 7254 H 689.972 -3.02806 0.755981 0
M  V30 7255 N 690.273 -0.685099 -1.4193 0
M  V30 7256 C 691.205 0.0258679 -2.29185 0
M  V30 7257 C 692.218 0.755076 -1.44231 0
M  V30 7258 O 693.407 0.60752 -1.67844 0
M  V30 7259 C 690.507 1.06055 -3.21878 0
M  V30 7260 C 689.68 0.403088 -4.35539 0
M  V30 7261 C 688.739 1.33895 -5.0888 0
M  V30 7262 O 687.765 0.835326 -5.63037 0
M  V30 7263 N 688.967 2.6718 -5.15359 0
M  V30 7264 H 691.732 -0.723201 -2.90843 0
M  V30 7265 H 689.293 -0.53031 -1.52968 0
M  V30 7266 H 691.285 1.68813 -3.6781 0
M  V30 7267 H 689.855 1.71126 -2.616 0
M  V30 7268 H 689.075 -0.404185 -3.92122 0
M  V30 7269 H 690.363 -0.0545098 -5.08771 0
M  V30 7270 H 689.761 3.10626 -4.72788 0
M  V30 7271 H 688.318 3.25159 -5.64903 0
M  V30 7272 N 691.751 1.51645 -0.429126 0
M  V30 7273 C 692.681 2.30434 0.377148 0
M  V30 7274 C 693.662 1.35493 1.02838 0
M  V30 7275 O 694.847 1.6441 1.03359 0
M  V30 7276 C 691.977 3.14038 1.48315 0
M  V30 7277 C 690.931 4.1719 0.955855 0
M  V30 7278 C 690.257 4.89263 2.15698 0
M  V30 7279 C 691.557 5.223 -0.00402136 0
M  V30 7280 H 693.251 2.98085 -0.280336 0
M  V30 7281 H 690.797 1.43354 -0.136265 0
M  V30 7282 H 692.75 3.67933 2.05435 0
M  V30 7283 H 691.474 2.44193 2.16881 0
M  V30 7284 H 690.133 3.64335 0.406929 0
M  V30 7285 H 689.781 4.15929 2.82864 0
M  V30 7286 H 689.481 5.59009 1.81059 0
M  V30 7287 H 691.005 5.45978 2.73387 0
M  V30 7288 H 692.419 5.71315 0.476607 0
M  V30 7289 H 690.816 5.99525 -0.26258 0
M  V30 7290 H 691.886 4.75638 -0.943236 0
M  V30 7291 N 693.229 0.160201 1.56784 0
M  V30 7292 C 694.457 -0.494165 2.00912 0
M  V30 7293 C 694.872 -1.57548 1.04038 0
M  V30 7294 O 694.229 -1.82457 0.0394581 0
M  V30 7295 C 694.28 -1.08271 3.44905 0
M  V30 7296 O 694.001 -0.0445704 4.38077 0
M  V30 7297 C 695.502 -1.8164 4.04378 0
M  V30 7298 H 692.722 -0.127498 0.658776 0
M  V30 7299 H 695.266 0.258665 2.02858 0
M  V30 7300 H 693.421 -1.78609 3.4377 0
M  V30 7301 H 693.835 -0.477544 5.22322 0
M  V30 7302 H 695.309 -2.18094 5.07089 0
M  V30 7303 H 695.786 -2.70727 3.45838 0
M  V30 7304 H 696.392 -1.15969 4.09184 0
M  V30 7305 N 694.707 -1.5719 -0.113559 0
M  V30 7306 C 695.953 -1.85412 -0.821597 0
M  V30 7307 C 696.286 -0.746722 -1.7927 0
M  V30 7308 O 695.561 0.246971 -1.92926 0
M  V30 7309 C 695.844 -3.24233 -1.56669 0
M  V30 7310 C 695.697 -4.45578 -0.614823 0
M  V30 7311 C 697.016 -3.60697 -2.52161 0
M  V30 7312 H 694.135 -0.674406 -0.29723 0
M  V30 7313 H 696.777 -1.89807 -0.085694 0
M  V30 7314 H 694.927 -3.20617 -2.19401 0
M  V30 7315 H 696.599 -4.613 0.00407137 0
M  V30 7316 H 694.842 -4.33738 0.0732332 0
M  V30 7317 H 695.513 -5.39395 -1.17292 0
M  V30 7318 H 697.989 -3.65139 -1.99532 0
M  V30 7319 H 696.865 -4.58798 -3.01323 0
M  V30 7320 H 697.126 -2.88403 -3.35076 0
M  V30 7321 N 696.185 0.383891 -1.52853 0
M  V30 7322 C 697.133 1.48965 -1.7864 0
M  V30 7323 C 698.127 1.56242 -0.654577 0
M  V30 7324 O 699.333 1.59347 -0.83716 0
M  V30 7325 H 695.708 0.495892 -0.565328 0
M  V30 7326 H 697.679 1.24411 -2.71228 0
M  V30 7327 C 696.428 2.86036 -1.97683 0
M  V30 7328 H 695.751 2.81188 -2.84206 0
M  V30 7329 H 697.191 3.62632 -2.19713 0
M  V30 7330 C 695.65 3.28428 -0.750776 0
M  V30 7331 O 696.18 4.0164 0.0693491 0
M  V30 7332 N 694.386 2.84765 -0.579427 0
M  V30 7333 H 693.933 2.25353 -1.24795 0
M  V30 7334 H 693.891 3.13486 0.239544 0
M  V30 7335 N 697.663 1.43903 0.642637 0
M  V30 7336 C 698.61 1.49881 1.75512 0
M  V30 7337 C 699.58 0.347538 1.62423 0
M  V30 7338 O 700.765 0.556177 1.82514 0
M  V30 7339 C 697.905 1.43797 3.13714 0
M  V30 7340 C 697.018 2.6921 3.37861 0
M  V30 7341 C 696.153 2.5504 4.6597 0
M  V30 7342 C 695.192 3.75671 4.83257 0
M  V30 7343 N 694.329 3.60247 6.02633 0
M  V30 7344 H 699.169 2.44935 1.69737 0
M  V30 7345 H 696.706 1.21572 0.828165 0
M  V30 7346 H 698.664 1.38262 3.93624 0
M  V30 7347 H 697.294 0.523173 3.18532 0
M  V30 7348 H 696.346 2.8498 2.51973 0
M  V30 7349 H 697.658 3.58786 3.46517 0
M  V30 7350 H 696.812 2.47273 5.54023 0
M  V30 7351 H 695.551 1.63006 4.59653 0
M  V30 7352 H 694.556 3.83836 3.93637 0
M  V30 7353 H 695.781 4.68728 4.91397 0
M  V30 7354 H 693.727 2.70955 5.97427 0
M  V30 7355 H 693.644 4.43431 6.12295 0
M  V30 7356 H 694.912 3.56351 6.93278 0
M  V30 7357 O 699.18 -0.78588 1.41089 0
M  V30 7358 H 699.871 -1.43226 1.30407 0
M  V30 END ATOM
M  V30 BEGIN BOND
M  V30 END BOND
M  V30 END CTAB
M  END
$$$$
