drugbank_target|Q9RX51 Malto-oligosyltrehalose trehalohydrolase (DB02379; DB03323)
 OpenBabel12092120263D

  0  0  0     0  0            999 V3000
M  V30 BEGIN CTAB
M  V30 COUNTS 9231 9370 0 0 0
M  V30 BEGIN ATOM
M  V30 1 H -0.908 1.98254 -0.117106 0
M  V30 2 N 0 1.576 0 0
M  V30 3 C 0.933 2.03868 1.02534 0
M  V30 4 C 1.911 0.928543 1.3348 0
M  V30 5 O 3.095 1.19667 1.45644 0
M  V30 6 C 0.222 2.43627 2.35294 0
M  V30 7 C -0.732 3.65373 2.2001 0
M  V30 8 S 0.101 5.13292 1.52614 0
M  V30 9 C 1.257 5.56322 2.86805 0
M  V30 10 H 1.49 2.90518 0.631377 0
M  V30 11 H -0.977 1.52953 0.210867 0
M  V30 12 H 0.981 2.67203 3.11629 0
M  V30 13 H -0.358 1.57376 2.7183 0
M  V30 14 H -1.165 3.90944 3.18086 0
M  V30 15 H -1.563 3.418 1.51819 0
M  V30 16 H 0.729 5.58782 3.83104 0
M  V30 17 H 1.672 6.56266 2.65933 0
M  V30 18 H 2.08 4.83886 2.90714 0
M  V30 19 N 1.4781 -0.272755 1.55222 0
M  V30 20 C 2.7061 -1.02255 1.79865 0
M  V30 21 C 3.1211 -1.79924 0.572088 0
M  V30 22 O 2.4781 -1.76638 -0.458842 0
M  V30 23 C 2.5291 -1.98094 3.02392 0
M  V30 24 O 2.2501 -1.23572 4.20311 0
M  V30 25 C 3.7511 -2.84884 3.39641 0
M  V30 26 H 0.9711 -0.302057 0.599168 0
M  V30 27 H 3.5151 -0.303465 2.02236 0
M  V30 28 H 1.6701 -2.65465 2.82147 0
M  V30 29 H 2.0841 -1.88172 4.89583 0
M  V30 30 H 3.5581 -3.47927 4.28545 0
M  V30 31 H 4.0351 -3.54665 2.59055 0
M  V30 32 H 4.6411 -2.23003 3.62146 0
M  V30 33 N 2.9562 -1.48159 -0.537278 0
M  V30 34 C 3.8882 -1.58218 -1.65831 0
M  V30 35 C 4.9012 -0.466948 -1.5596 0
M  V30 36 O 6.0902 -0.73747 -1.62553 0
M  V30 37 C 3.1902 -1.48906 -3.04434 0
M  V30 38 C 2.3632 -2.75343 -3.3986 0
M  V30 39 C 1.4222 -2.59588 -4.57712 0
M  V30 40 O 0.4482 -3.33457 -4.61297 0
M  V30 41 N 1.6502 -1.68724 -5.55439 0
M  V30 42 H 4.4152 -2.54891 -1.57641 0
M  V30 43 H 1.9762 -1.4479 -0.724386 0
M  V30 44 H 3.9682 -1.36072 -3.81139 0
M  V30 45 H 2.5382 -0.602368 -3.06741 0
M  V30 46 H 1.7582 -3.02795 -2.52406 0
M  V30 47 H 3.0462 -3.5924 -3.60311 0
M  V30 48 H 2.4442 -1.07898 -5.55315 0
M  V30 49 H 1.0012 -1.61832 -6.3139 0
M  V30 50 N 4.4343 0.785586 -1.36625 0
M  V30 51 C 5.6623 1.57448 -1.3423 0
M  V30 52 C 6.0773 1.88649 0.0755653 0
M  V30 53 O 5.4343 1.50414 1.03354 0
M  V30 54 C 5.4853 2.89316 -2.16745 0
M  V30 55 O 5.2063 2.59459 -3.53005 0
M  V30 56 C 6.7073 3.83606 -2.22174 0
M  V30 57 H 3.9273 0.488226 -0.4603 0
M  V30 58 H 6.4713 0.974733 -1.79775 0
M  V30 59 H 4.6263 3.4575 -1.74745 0
M  V30 60 H 5.0403 3.43804 -3.96105 0
M  V30 61 H 6.5143 4.73181 -2.8426 0
M  V30 62 H 6.9913 4.21734 -1.22627 0
M  V30 63 H 7.5973 3.33104 -2.64427 0
M  V30 64 N 5.9124 1.20967 1.01018 0
M  V30 65 C 6.8444 0.922059 2.09835 0
M  V30 66 C 7.8574 -0.0927106 1.62536 0
M  V30 67 O 9.0464 0.139127 1.77957 0
M  V30 68 C 6.1464 0.362004 3.36961 0
M  V30 69 C 5.3194 1.42986 4.13369 0
M  V30 70 C 4.3784 0.879976 5.1879 0
M  V30 71 O 3.4044 1.56219 5.47343 0
M  V30 72 N 4.6064 -0.307396 5.79686 0
M  V30 73 H 7.3714 1.8588 2.35093 0
M  V30 74 H 4.9324 1.11422 1.1746 0
M  V30 75 H 6.9244 -0.0201474 4.04695 0
M  V30 76 H 5.4944 -0.479437 3.08902 0
M  V30 77 H 4.7144 1.98608 3.40512 0
M  V30 78 H 6.0024 2.14885 4.61196 0
M  V30 79 H 5.4004 -0.878796 5.58832 0
M  V30 80 H 3.9574 -0.631115 6.48737 0
M  V30 81 N 7.3905 -1.2043 1.01659 0
M  V30 82 C 8.8015 -1.71517 0.737482 0
M  V30 83 C 9.1525 -1.81547 -0.743973 0
M  V30 84 O 8.2775 -1.47803 -1.58061 0
M  V30 85 C 8.8725 -3.11515 1.33206 0
M  V30 86 C 7.4315 -3.59912 1.10183 0
M  V30 87 C 6.5785 -2.37116 1.43776 0
M  V30 88 H 9.5295 -1.05444 1.18606 0
M  V30 89 H 9.5505 -3.73575 0.722636 0
M  V30 90 H 9.0625 -3.04182 2.41028 0
M  V30 91 H 7.1635 -3.72577 0.0412756 0
M  V30 92 H 7.2765 -4.44731 1.78188 0
M  V30 93 H 5.6405 -2.39857 0.856778 0
M  V30 94 H 6.4235 -2.32424 2.52654 0
M  V30 95 N 8.8686 -0.792821 -1.36206 0
M  V30 96 C 10.1146 -0.36733 -1.99446 0
M  V30 97 C 10.4476 1.05917 -1.62774 0
M  V30 98 O 9.7226 1.7324 -0.88421 0
M  V30 99 C 10.0056 -0.535044 -3.56103 0
M  V30 100 C 9.8586 -2.00548 -4.02617 0
M  V30 101 C 11.1776 0.0478191 -4.40074 0
M  V30 102 H 8.2966 -0.134941 -0.724541 0
M  V30 103 H 10.9386 -0.999794 -1.61568 0
M  V30 104 H 9.0886 0.00336329 -3.885 0
M  V30 105 H 10.7606 -2.60521 -3.80692 0
M  V30 106 H 9.0036 -2.50686 -3.54032 0
M  V30 107 H 9.6746 -2.07377 -5.11565 0
M  V30 108 H 12.1506 -0.411822 -4.14057 0
M  V30 109 H 11.0266 -0.0995336 -5.4881 0
M  V30 110 H 11.2876 1.14025 -4.27142 0
M  V30 111 N 10.3467 1.47872 -0.545128 0
M  V30 112 C 11.5747 2.06889 -0.021084 0
M  V30 113 C 11.9897 1.39955 1.2672 0
M  V30 114 O 11.3467 0.492036 1.75742 0
M  V30 115 C 11.3977 3.60996 0.190817 0
M  V30 116 O 11.1187 4.25419 -1.04644 0
M  V30 117 C 12.6197 4.36849 0.753521 0
M  V30 118 H 9.8397 0.669785 -0.0403635 0
M  V30 119 H 12.3837 1.90049 -0.755095 0
M  V30 120 H 10.5387 3.77391 0.87492 0
M  V30 121 H 10.9527 5.17785 -0.836611 0
M  V30 122 H 12.4267 5.45399 0.851139 0
M  V30 123 H 12.9037 4.02306 1.762 0
M  V30 124 H 13.5097 4.25169 0.105503 0
M  V30 125 N 11.8248 0.280983 1.55075 0
M  V30 126 C 13.2358 -0.215629 1.85451 0
M  V30 127 C 13.5868 -1.54991 1.203 0
M  V30 128 O 12.7118 -2.10699 0.493435 0
M  V30 129 C 13.3068 -0.398026 3.36454 0
M  V30 130 C 11.8658 -0.838866 3.66933 0
M  V30 131 C 11.0128 0.064458 2.77225 0
M  V30 132 H 13.9638 0.502601 1.50531 0
M  V30 133 H 13.9848 -1.23569 3.59876 0
M  V30 134 H 13.4968 0.573241 3.83843 0
M  V30 135 H 11.5978 -1.8214 3.25048 0
M  V30 136 H 11.7108 -0.672123 4.74362 0
M  V30 137 H 10.0748 -0.452863 2.50642 0
M  V30 138 H 10.8578 1.03172 3.2743 0
M  V30 139 N 13.3029 -1.57598 0.00835791 0
M  V30 140 C 14.5309 -1.95214 -0.68549 0
M  V30 141 C 14.9459 -0.883706 -1.66841 0
M  V30 142 O 14.3029 0.136565 -1.81988 0
M  V30 143 C 14.3539 -3.32865 -1.41007 0
M  V30 144 O 14.0749 -4.35609 -0.466552 0
M  V30 145 C 15.5759 -3.84991 -2.19765 0
M  V30 146 H 12.7959 -0.643422 -0.190392 0
M  V30 147 H 15.3399 -2.04406 0.0619607 0
M  V30 148 H 13.4949 -3.24956 -2.10908 0
M  V30 149 H 13.9089 -5.15288 -0.978699 0
M  V30 150 H 15.3829 -4.8371 -2.65948 0
M  V30 151 H 15.8599 -3.18137 -3.02796 0
M  V30 152 H 16.4659 -3.96103 -1.54864 0
M  V30 153 N 14.781 0.264519 -1.55364 0
M  V30 154 C 16.192 0.834936 -1.6699 0
M  V30 155 C 16.543 1.86718 -0.602552 0
M  V30 156 O 15.668 2.14899 0.254425 0
M  V30 157 C 16.263 1.5212 -3.02729 0
M  V30 158 C 14.822 2.03954 -3.16354 0
M  V30 159 C 13.969 0.884498 -2.62815 0
M  V30 160 H 16.92 0.0406869 -1.58648 0
M  V30 161 H 16.941 2.38853 -2.96191 0
M  V30 162 H 16.453 0.769668 -3.80392 0
M  V30 163 H 14.554 2.82041 -2.43482 0
M  V30 164 H 14.667 2.24902 -4.23032 0
M  V30 165 H 13.031 1.2802 -2.20188 0
M  V30 166 H 13.814 0.14634 -3.42988 0
M  V30 167 N 16.2591 1.48442 0.529413 0
M  V30 168 C 17.6701 1.5002 1.11134 0
M  V30 169 C 18.0211 0.27031 1.94329 0
M  V30 170 O 17.1461 -0.622507 2.07253 0
M  V30 171 C 17.7411 2.71834 2.02217 0
M  V30 172 C 16.3001 2.76283 2.55627 0
M  V30 173 C 15.4471 2.43542 1.326 0
M  V30 174 H 18.3981 1.5555 0.314641 0
M  V30 175 H 18.4191 2.50384 2.8651 0
M  V30 176 H 17.9311 3.61331 1.41639 0
M  V30 177 H 16.0321 1.90995 3.19924 0
M  V30 178 H 16.1451 3.77725 2.94721 0
M  V30 179 H 14.5091 1.94709 1.64196 0
M  V30 180 H 15.2921 3.3528 0.737734 0
M  V30 181 N 17.7372 -0.778329 1.37039 0
M  V30 182 C 18.7002 -1.87301 1.32102 0
M  V30 183 C 19.7002 -1.59198 0.226405 0
M  V30 184 O 20.8902 -1.67403 0.481861 0
M  V30 185 C 18.0222 -3.24309 1.05055 0
M  V30 186 H 19.2152 -1.93093 2.29467 0
M  V30 187 H 16.7682 -0.977358 1.21973 0
M  V30 188 H 17.5032 -3.24196 0.0819373 0
M  V30 189 H 17.2882 -3.46098 1.84279 0
M  V30 190 H 18.7782 -4.04382 1.04234 0
M  V30 191 N 19.2153 -1.21501 -1.00376 0
M  V30 192 C 20.4403 -1.05977 -1.78279 0
M  V30 193 C 20.8653 0.385994 -1.84097 0
M  V30 194 O 20.2233 1.27849 -1.28547 0
M  V30 195 C 20.2713 -1.66302 -3.19963 0
M  V30 196 O 19.3753 -0.909333 -4.0225 0
M  V30 197 H 18.7163 -0.372906 -0.549397 0
M  V30 198 H 21.2463 -1.6107 -1.26165 0
M  V30 199 H 21.2563 -1.70574 -3.70632 0
M  V30 200 H 19.9313 -2.71515 -3.15043 0
M  V30 201 H 18.5083 -0.941795 -3.60811 0
M  V30 202 N 20.6934 1.19889 -1.02296 0
M  V30 203 C 21.9404 1.8942 -0.715972 0
M  V30 204 C 22.2684 1.79251 0.754944 0
M  V30 205 O 21.5234 1.17526 1.56481 0
M  V30 206 C 21.8224 3.39883 -1.10518 0
M  V30 207 C 21.4884 3.70254 -2.57337 0
M  V30 208 C 20.1504 3.78254 -2.97452 0
M  V30 209 C 22.5024 3.84052 -3.52354 0
M  V30 210 C 19.8304 3.97514 -4.31509 0
M  V30 211 C 22.1824 4.04824 -4.86108 0
M  V30 212 C 20.8464 4.11054 -5.25919 0
M  V30 213 H 20.1164 0.693138 -0.261993 0
M  V30 214 H 22.7634 1.42012 -1.28472 0
M  V30 215 H 21.0684 3.8915 -0.454953 0
M  V30 216 H 22.7654 3.9199 -0.845261 0
M  V30 217 H 19.3554 3.64632 -2.25258 0
M  V30 218 H 23.5394 3.77221 -3.22518 0
M  V30 219 H 18.7954 4.00574 -4.61898 0
M  V30 220 H 22.9694 4.14442 -5.59653 0
M  V30 221 H 20.5964 4.2573 -6.29808 0
M  V30 222 N 22.1715 0.800033 1.35784 0
M  V30 223 C 23.1035 0.163596 2.28615 0
M  V30 224 C 24.1165 -0.633317 1.49976 0
M  V30 225 O 25.3055 -0.466754 1.72289 0
M  V30 226 C 22.4055 -0.790958 3.29541 0
M  V30 227 C 21.5785 -0.0418255 4.3738 0
M  V30 228 C 20.6375 -0.91389 5.18203 0
M  V30 229 O 19.6635 -0.367234 5.68014 0
M  V30 230 N 20.8655 -2.23682 5.35674 0
M  V30 231 H 23.6305 0.96105 2.83873 0
M  V30 232 H 21.1915 0.654894 1.48063 0
M  V30 233 H 23.1835 -1.37844 3.80501 0
M  V30 234 H 21.7535 -1.48925 2.74846 0
M  V30 235 H 20.9735 0.726813 3.87442 0
M  V30 236 H 22.2615 0.474719 5.06581 0
M  V30 237 H 21.6595 -2.70497 4.96838 0
M  V30 238 H 20.2165 -2.77369 5.89839 0
M  V30 239 N 23.6496 -1.47581 0.552962 0
M  V30 240 C 24.8776 -2.06875 0.0320556 0
M  V30 241 C 25.2926 -1.40625 -1.25976 0
M  V30 242 O 24.6496 -0.501349 -1.75479 0
M  V30 243 C 24.7006 -3.61092 -0.17167 0
M  V30 244 O 24.4216 -4.24858 1.06899 0
M  V30 245 C 25.9226 -4.37242 -0.730344 0
M  V30 246 H 23.1426 -0.669561 0.043915 0
M  V30 247 H 25.6866 -1.89646 0.765163 0
M  V30 248 H 23.8416 -3.7785 -0.854894 0
M  V30 249 H 24.2556 -5.17334 0.864059 0
M  V30 250 H 25.7296 -5.45842 -0.822203 0
M  V30 251 H 26.2066 -4.03235 -1.74064 0
M  V30 252 H 26.8126 -4.25219 -0.0829543 0
M  V30 253 N 25.1277 -0.289203 -1.54924 0
M  V30 254 C 26.0597 0.625583 -2.20497 0
M  V30 255 C 27.0727 1.10667 -1.19402 0
M  V30 256 O 28.2617 1.02615 -1.46056 0
M  V30 257 C 25.3617 1.86702 -2.82835 0
M  V30 258 C 24.5347 1.5304 -4.09753 0
M  V30 259 C 23.5937 2.62576 -4.56005 0
M  V30 260 O 22.6197 2.28167 -5.21468 0
M  V30 261 N 23.8217 3.92901 -4.27328 0
M  V30 262 H 26.5867 0.0642801 -2.99631 0
M  V30 263 H 24.1477 -0.110896 -1.6152 0
M  V30 264 H 26.1397 2.59304 -3.10715 0
M  V30 265 H 24.7097 2.33702 -2.07611 0
M  V30 266 H 23.9297 0.637564 -3.8901 0
M  V30 267 H 25.2177 1.28072 -4.92418 0
M  V30 268 H 24.6157 4.23671 -3.74859 0
M  V30 269 H 23.1727 4.61837 -4.59946 0
M  V30 270 N 26.6058 1.57591 -0.0167156 0
M  V30 271 C 27.5558 2.05953 0.978137 0
M  V30 272 C 28.5398 0.957532 1.29306 0
M  V30 273 O 29.7318 1.22119 1.28125 0
M  V30 274 C 26.8608 2.58006 2.26468 0
M  V30 275 C 25.9468 3.75113 1.97867 0
M  V30 276 N 26.3378 4.86187 1.39486 0
M  V30 277 C 24.6358 3.83363 2.27924 0
M  V30 278 C 25.3368 5.67502 1.27735 0
M  V30 279 N 24.3128 5.14023 1.76866 0
M  V30 280 H 28.1148 2.89236 0.521522 0
M  V30 281 H 25.6288 1.61301 0.188596 0
M  V30 282 H 27.6258 2.90937 2.98599 0
M  V30 283 H 26.2858 1.76148 2.72767 0
M  V30 284 H 27.2968 5.06695 1.07147 0
M  V30 285 H 23.9738 3.1239 2.76982 0
M  V30 286 H 25.3638 6.66791 0.826978 0
M  V30 287 N 28.0839 -0.256276 1.55502 0
M  V30 288 C 29.3609 -1.00789 1.67633 0
M  V30 289 C 29.7409 -2.03706 0.553826 0
M  V30 290 O 29.0889 -2.24145 -0.443969 0
M  V30 291 C 29.2989 -1.64968 3.07549 0
M  V30 292 C 30.6469 -2.15505 3.65845 0
M  V30 293 O 31.6709 -1.74925 3.1029 0
M  V30 294 O 30.5299 -2.89986 4.63217 0
M  V30 295 H 27.6239 -0.468553 0.681459 0
M  V30 296 H 30.1699 -0.250806 1.67836 0
M  V30 297 H 28.9419 -0.904785 3.80696 0
M  V30 298 H 28.5649 -2.47321 3.11317 0
M  V30 299 N 29.562 -1.4872 -0.521534 0
M  V30 300 C 30.973 -1.50607 -1.10337 0
M  V30 301 C 31.324 -0.280612 -1.94183 0
M  V30 302 O 30.449 0.611507 -2.0758 0
M  V30 303 C 31.044 -2.72903 -2.00772 0
M  V30 304 C 29.603 -2.77634 -2.54158 0
M  V30 305 C 28.75 -2.44241 -1.31307 0
M  V30 306 H 31.701 -1.55714 -0.306388 0
M  V30 307 H 31.722 -2.519 -2.85178 0
M  V30 308 H 31.234 -3.62077 -1.39721 0
M  V30 309 H 29.335 -1.92689 -3.18907 0
M  V30 310 H 29.448 -3.79283 -2.92714 0
M  V30 311 H 27.812 -1.95577 -1.63161 0
M  V30 312 H 28.595 -3.35666 -0.719943 0
M  V30 313 N 31.0401 0.771051 -1.3745 0
M  V30 314 C 32.4561 1.07171 -1.18265 0
M  V30 315 C 32.6561 2.01491 -0.019287 0
M  V30 316 O 31.7121 2.44244 0.640408 0
M  V30 317 C 33.0251 1.66854 -2.50161 0
M  V30 318 C 34.5731 1.79109 -2.56689 0
M  V30 319 C 35.0481 2.42205 -3.88717 0
M  V30 320 N 36.5391 2.49655 -3.90162 0
M  V30 321 C 37.2741 2.9933 -4.8907 0
M  V30 322 N 36.7701 3.49172 -5.98374 0
M  V30 323 N 38.5631 2.9821 -4.76474 0
M  V30 324 H 30.7141 0.144796 -2.11906 0
M  V30 325 H 32.9771 0.126863 -0.939473 0
M  V30 326 H 32.6831 1.05017 -3.35655 0
M  V30 327 H 32.5571 2.6614 -2.673 0
M  V30 328 H 34.9441 2.40077 -1.71601 0
M  V30 329 H 35.0251 0.785757 -2.43433 0
M  V30 330 H 34.6691 1.81875 -4.74219 0
M  V30 331 H 34.5991 3.43345 -3.99276 0
M  V30 332 H 37.0901 2.14383 -3.11205 0
M  V30 333 H 37.4031 3.8548 -6.69795 0
M  V30 334 H 35.7481 3.47275 -6.02018 0
M  V30 335 H 38.9391 2.58572 -3.90203 0
M  V30 336 H 39.1121 3.36613 -5.53711 0
M  V30 337 N 32.5182 1.22032 0.997298 0
M  V30 338 C 33.7462 1.06841 1.7718 0
M  V30 339 C 34.1612 -0.381325 1.84909 0
M  V30 340 O 33.5182 -1.26437 1.31605 0
M  V30 341 C 33.5692 1.66814 3.20711 0
M  V30 342 O 33.2902 3.06116 3.13408 0
M  V30 343 C 34.7912 1.56838 4.14628 0
M  V30 344 H 32.0112 0.374782 0.556578 0
M  V30 345 H 34.5552 1.61532 1.2541 0
M  V30 346 H 32.7102 1.16196 3.69564 0
M  V30 347 H 33.1242 3.34926 4.0364 0
M  V30 348 H 34.5982 2.03532 5.13107 0
M  V30 349 H 35.0752 0.524155 4.36061 0
M  V30 350 H 35.6812 2.06741 3.7167 0
M  V30 351 N 33.9963 -1.19345 1.0293 0
M  V30 352 C 35.4123 -1.41069 0.746446 0
M  V30 353 C 35.6123 -1.90078 -0.668776 0
M  V30 354 O 34.6683 -2.0778 -1.4347 0
M  V30 355 C 35.9813 -2.42141 1.78292 0
M  V30 356 C 37.5293 -2.55887 1.80252 0
M  V30 357 C 38.0043 -3.60214 2.8286 0
M  V30 358 N 39.4953 -3.67711 2.81679 0
M  V30 359 C 40.2303 -4.48128 3.57727 0
M  V30 360 N 39.7263 -5.32248 4.43491 0
M  V30 361 N 41.5193 -4.42782 3.46267 0
M  V30 362 H 33.6703 -0.858536 1.94275 0
M  V30 363 H 35.9333 -0.439541 0.839945 0
M  V30 364 H 35.6393 -2.13155 2.79746 0
M  V30 365 H 35.5133 -3.41323 1.60557 0
M  V30 366 H 37.9003 -2.84196 0.794757 0
M  V30 367 H 37.9813 -1.56858 2.02062 0
M  V30 368 H 37.6253 -3.32647 3.83807 0
M  V30 369 H 37.5553 -4.58895 2.58307 0
M  V30 370 H 40.0463 -3.07634 2.19476 0
M  V30 371 H 40.3593 -5.90729 4.98256 0
M  V30 372 H 38.7043 -5.31707 4.47564 0
M  V30 373 H 41.8953 -3.76107 2.78677 0
M  V30 374 H 42.0683 -5.05215 4.05785 0
M  V30 375 N 35.4744 -0.807222 -1.35358 0
M  V30 376 C 36.4044 -0.232509 -2.3234 0
M  V30 377 C 37.3854 0.642386 -1.57504 0
M  V30 378 O 38.5704 0.572526 -1.85569 0
M  V30 379 C 35.7004 0.619238 -3.41735 0
M  V30 380 C 34.6544 -0.157215 -4.27711 0
M  V30 381 C 33.9804 0.816273 -5.28433 0
M  V30 382 C 35.2804 -1.35656 -5.04376 0
M  V30 383 H 36.9744 -1.04276 -2.80654 0
M  V30 384 H 34.5204 -0.50288 -1.34934 0
M  V30 385 H 36.4734 1.03137 -4.08584 0
M  V30 386 H 35.1974 1.46239 -2.92031 0
M  V30 387 H 33.8564 -0.550525 -3.62443 0
M  V30 388 H 33.5044 1.65494 -4.74996 0
M  V30 389 H 33.2044 0.301067 -5.86828 0
M  V30 390 H 34.7284 1.22659 -5.98153 0
M  V30 391 H 36.1424 -1.01927 -5.64166 0
M  V30 392 H 34.5394 -1.8063 -5.7227 0
M  V30 393 H 35.6094 -2.14288 -4.34981 0
M  V30 394 N 36.9525 1.47285 -0.560781 0
M  V30 395 C 38.2005 2.02064 -0.0379868 0
M  V30 396 C 38.5215 1.43711 1.31803 0
M  V30 397 O 37.7915 0.61362 1.86042 0
M  V30 398 H 36.3715 0.746918 -0.0110531 0
M  V30 399 H 39.0335 1.80648 -0.731598 0
M  V30 400 H 38.1295 3.12064 0.0474463 0
M  V30 401 N 38.4306 0.297415 1.54768 0
M  V30 402 C 39.3936 -0.567375 2.22066 0
M  V30 403 C 40.3936 -1.06409 1.20556 0
M  V30 404 O 41.5836 -0.960691 1.45315 0
M  V30 405 C 38.7156 -1.78517 2.90421 0
M  V30 406 H 39.9086 0.0205534 2.99893 0
M  V30 407 H 37.4616 0.0482163 1.56226 0
M  V30 408 H 38.1966 -2.41303 2.16664 0
M  V30 409 H 37.9816 -1.43669 3.64831 0
M  V30 410 H 39.4716 -2.39964 3.41771 0
M  V30 411 N 39.9087 -1.5758 0.0250728 0
M  V30 412 C 41.1367 -1.9593 -0.664747 0
M  V30 413 C 41.5517 -0.901352 -1.65895 0
M  V30 414 O 40.9087 0.117255 -1.82123 0
M  V30 415 C 40.9597 -3.34342 -1.37468 0
M  V30 416 O 40.6807 -4.36079 -0.420324 0
M  V30 417 C 42.1817 -3.873 -2.1567 0
M  V30 418 H 39.4017 -0.645405 -0.183557 0
M  V30 419 H 41.9457 -2.04329 0.0836372 0
M  V30 420 H 40.1007 -3.27175 -2.0745 0
M  V30 421 H 40.5147 -5.16297 -0.923991 0
M  V30 422 H 41.9887 -4.86504 -2.60803 0
M  V30 423 H 42.4657 -3.21331 -2.99405 0
M  V30 424 H 43.0717 -3.97723 -1.50654 0
M  V30 425 N 41.3868 0.248026 -1.55636 0
M  V30 426 C 42.7978 0.817177 -1.67866 0
M  V30 427 C 43.1488 1.86069 -0.622322 0
M  V30 428 O 42.2738 2.15157 0.231618 0
M  V30 429 C 42.8688 1.489 -3.04326 0
M  V30 430 C 41.4278 2.00587 -3.185 0
M  V30 431 C 40.5748 0.856573 -2.63739 0
M  V30 432 H 43.5258 0.0238579 -1.58682 0
M  V30 433 H 43.5468 2.35698 -2.98708 0
M  V30 434 H 43.0588 0.729279 -3.81186 0
M  V30 435 H 41.1598 2.79443 -2.4646 0
M  V30 436 H 41.2728 2.20402 -4.25393 0
M  V30 437 H 39.6368 1.25678 -2.21534 0
M  V30 438 H 40.4198 0.109953 -3.43124 0
M  V30 439 N 42.8649 1.48995 0.513639 0
M  V30 440 C 43.7949 1.67636 1.62544 0
M  V30 441 C 44.7759 0.525087 1.61793 0
M  V30 442 O 45.9609 0.759502 1.78732 0
M  V30 443 C 43.0909 1.73114 3.01079 0
M  V30 444 C 42.0449 2.87905 3.16693 0
M  V30 445 C 41.3709 2.78486 4.56453 0
M  V30 446 C 42.6709 4.29005 2.97913 0
M  V30 447 H 44.3649 2.60716 1.47198 0
M  V30 448 H 41.9109 1.25465 0.706714 0
M  V30 449 H 43.8639 1.84742 3.78746 0
M  V30 450 H 42.5879 0.766241 3.17484 0
M  V30 451 H 41.2469 2.75859 2.41448 0
M  V30 452 H 40.8949 1.7993 4.69717 0
M  V30 453 H 40.5949 3.55523 4.67843 0
M  V30 454 H 42.1189 2.92104 5.36197 0
M  V30 455 H 43.5329 4.41798 3.65359 0
M  V30 456 H 41.9299 5.07166 3.20785 0
M  V30 457 H 42.9999 4.44329 1.94165 0
M  V30 458 N 44.343 -0.763751 1.37857 0
M  V30 459 C 45.754 -1.3405 1.29952 0
M  V30 460 C 46.105 -1.96138 -0.0492898 0
M  V30 461 O 45.23 -1.94372 -0.951239 0
M  V30 462 C 45.825 -2.43729 2.35333 0
M  V30 463 C 44.384 -2.97151 2.31037 0
M  V30 464 C 43.531 -1.70438 2.18738 0
M  V30 465 H 46.482 -0.563396 1.48363 0
M  V30 466 H 46.503 -3.23412 2.00462 0
M  V30 467 H 46.015 -1.9851 3.33489 0
M  V30 468 H 44.116 -3.46724 1.3643 0
M  V30 469 H 44.229 -3.52221 3.24772 0
M  V30 470 H 42.593 -1.93673 1.65418 0
M  V30 471 H 43.376 -1.27312 3.18821 0
M  V30 472 N 45.8211 -1.22559 -0.990812 0
M  V30 473 C 47.0691 -1.04933 -1.72724 0
M  V30 474 C 47.3901 0.416158 -1.90508 0
M  V30 475 O 46.6601 1.29918 -1.46622 0
M  V30 476 H 45.2401 -0.385296 -0.639965 0
M  V30 477 H 47.9021 -1.54105 -1.19322 0
M  V30 478 H 46.9981 -1.52886 -2.72089 0
M  V30 479 N 47.2992 1.18797 -1.03562 0
M  V30 480 C 48.5472 1.88278 -0.734569 0
M  V30 481 C 48.8682 1.8043 0.739586 0
M  V30 482 O 48.1382 1.21925 1.53333 0
M  V30 483 H 46.7182 0.696991 -0.268725 0
M  V30 484 H 49.3802 1.44192 -1.31129 0
M  V30 485 H 48.4762 2.94443 -1.03489 0
M  V30 486 N 48.7773 0.814389 1.34928 0
M  V30 487 C 49.7403 0.235759 2.27984 0
M  V30 488 C 50.7403 -0.581412 1.49921 0
M  V30 489 O 51.9303 -0.398758 1.69575 0
M  V30 490 C 49.0623 -0.670433 3.34242 0
M  V30 491 H 50.2553 1.05659 2.80671 0
M  V30 492 H 47.8083 0.585614 1.44915 0
M  V30 493 H 48.5433 -1.51466 2.86755 0
M  V30 494 H 48.3283 -0.0860822 3.92005 0
M  V30 495 H 49.8183 -1.06935 4.03676 0
M  V30 496 N 50.2554 -1.46986 0.568584 0
M  V30 497 C 51.5034 -2.02041 0.0487022 0
M  V30 498 C 51.8244 -1.44408 -1.31039 0
M  V30 499 O 51.0944 -0.623477 -1.85714 0
M  V30 500 H 49.6744 -0.746849 0.015014 0
M  V30 501 H 52.3364 -1.80257 0.741168 0
M  V30 502 H 51.4324 -3.12085 -0.0308961 0
M  V30 503 N 51.7335 -0.305618 -1.54608 0
M  V30 504 C 52.9615 0.304775 -2.04643 0
M  V30 505 C 53.3765 1.47167 -1.18268 0
M  V30 506 O 52.7335 1.81296 -0.209328 0
M  V30 507 C 52.7845 0.756564 -3.53495 0
M  V30 508 O 52.5055 -0.36389 -4.36586 0
M  V30 509 C 54.0065 1.43163 -4.19546 0
M  V30 510 H 51.2265 0.0655481 -0.667791 0
M  V30 511 H 53.7705 -0.446592 -1.99564 0
M  V30 512 H 51.9255 1.45794 -3.58919 0
M  V30 513 H 52.3395 -0.0113121 -5.24499 0
M  V30 514 H 53.8135 1.69886 -5.25207 0
M  V30 515 H 54.2905 2.37318 -3.69563 0
M  V30 516 H 54.8965 0.773307 -4.18211 0
M  V30 517 N 53.2116 1.57565 -0.0334293 0
M  V30 518 C 54.6276 1.56297 0.322997 0
M  V30 519 C 54.8276 1.03945 1.7262 0
M  V30 520 O 53.8836 0.688109 2.42943 0
M  V30 521 C 55.1966 3.00232 0.167664 0
M  V30 522 C 56.7446 3.12078 0.240107 0
M  V30 523 C 57.2196 4.57859 0.113513 0
M  V30 524 N 58.7106 4.62887 0.170359 0
M  V30 525 C 59.4456 5.73319 0.0962517 0
M  V30 526 N 58.9416 6.92794 -0.0291881 0
M  V30 527 N 60.7346 5.61898 0.150551 0
M  V30 528 H 52.8856 1.89923 -0.950956 0
M  V30 529 H 55.1486 0.873824 -0.367608 0
M  V30 530 H 54.8546 3.42501 -0.799102 0
M  V30 531 H 54.7286 3.654 0.936083 0
M  V30 532 H 57.1156 2.69718 1.19733 0
M  V30 533 H 57.1966 2.49623 -0.558763 0
M  V30 534 H 56.8406 5.009 -0.840314 0
M  V30 535 H 56.7706 5.18299 0.931302 0
M  V30 536 H 59.2616 3.76954 0.26728 0
M  V30 537 H 59.5746 7.7276 -0.0789252 0
M  V30 538 H 57.9196 6.94971 -0.0640299 0
M  V30 539 H 61.1106 4.67448 0.246981 0
M  V30 540 H 61.2836 6.47938 0.0893365 0
M  V30 541 N 54.6897 -0.239769 1.55765 0
M  V30 542 C 55.9367 -0.966801 1.7793 0
M  V30 543 C 56.2647 -1.85046 0.599015 0
M  V30 544 O 55.5197 -1.91197 -0.417395 0
M  V30 545 C 55.8187 -1.852 3.05672 0
M  V30 546 C 55.4847 -1.1231 4.36689 0
M  V30 547 C 54.1467 -0.921689 4.72291 0
M  V30 548 C 56.4987 -0.607019 5.17653 0
M  V30 549 C 53.8267 -0.191996 5.86386 0
M  V30 550 C 56.1787 0.109241 6.32506 0
M  V30 551 C 54.8427 0.322073 6.66723 0
M  V30 552 H 54.1127 -0.353778 0.651093 0
M  V30 553 H 56.7597 -0.23634 1.90036 0
M  V30 554 H 55.0647 -2.64975 2.8861 0
M  V30 555 H 56.7617 -2.41635 3.20021 0
M  V30 556 H 53.3517 -1.29004 4.08725 0
M  V30 557 H 57.5357 -0.750153 4.90598 0
M  V30 558 H 52.7917 -0.0166949 6.11398 0
M  V30 559 H 56.9657 0.516737 6.9448 0
M  V30 560 H 54.5927 0.88944 7.54979 0
M  V30 561 N 56.1678 -1.49265 -0.50573 0
M  V30 562 C 57.5838 -1.35923 -0.836486 0
M  V30 563 C 57.7838 -0.388704 -1.97715 0
M  V30 564 O 56.8398 0.181336 -2.51848 0
M  V30 565 C 58.1528 -2.76531 -1.18115 0
M  V30 566 C 59.7008 -2.85197 -1.28964 0
M  V30 567 C 60.1758 -4.26561 -1.66761 0
M  V30 568 N 61.6668 -4.2935 -1.73819 0
M  V30 569 C 62.4018 -5.35693 -2.045 0
M  V30 570 N 61.8978 -6.52287 -2.33438 0
M  V30 571 N 63.6908 -5.23105 -2.05711 0
M  V30 572 H 55.8418 -2.10965 0.246519 0
M  V30 573 H 58.1048 -0.9468 0.0476887 0
M  V30 574 H 57.8108 -3.49226 -0.416398 0
M  V30 575 H 57.6848 -3.11599 -2.1257 0
M  V30 576 H 60.0718 -2.12742 -2.04511 0
M  V30 577 H 60.1528 -2.53718 -0.325704 0
M  V30 578 H 59.7968 -4.99541 -0.917656 0
M  V30 579 H 59.7268 -4.55502 -2.64246 0
M  V30 580 H 62.2178 -3.4526 -1.53635 0
M  V30 581 H 62.5308 -7.29158 -2.56024 0
M  V30 582 H 60.8758 -6.55521 -2.30905 0
M  V30 583 H 64.0668 -4.31026 -1.82577 0
M  V30 584 H 64.2398 -6.06078 -2.29289 0
M  V30 585 N 57.6459 0.756429 -1.3826 0
M  V30 586 C 58.5759 1.88374 -1.37976 0
M  V30 587 C 59.5569 1.68311 -0.246082 0
M  V30 588 O 60.7419 1.88944 -0.44874 0
M  V30 589 C 57.8719 3.25864 -1.20125 0
M  V30 590 C 56.8259 3.60523 -2.30666 0
M  V30 591 C 56.1519 4.9672 -1.97923 0
M  V30 592 C 57.4519 3.65692 -3.72916 0
M  V30 593 H 59.1459 1.88869 -2.32312 0
M  V30 594 H 56.6919 0.907272 -1.11824 0
M  V30 595 H 58.6449 4.0438 -1.18552 0
M  V30 596 H 57.3689 3.25841 -0.222498 0
M  V30 597 H 56.0279 2.84324 -2.3142 0
M  V30 598 H 55.6759 4.93253 -0.985393 0
M  V30 599 H 55.3759 5.20878 -2.71955 0
M  V30 600 H 56.8999 5.77618 -1.97964 0
M  V30 601 H 58.3139 4.34328 -3.74208 0
M  V30 602 H 56.7109 4.01358 -4.4613 0
M  V30 603 H 57.7809 2.65987 -4.05436 0
M  V30 604 N 59.124 1.23083 0.984299 0
M  V30 605 C 60.37 1.07221 1.72845 0
M  V30 606 C 60.725 -0.387453 1.88458 0
M  V30 607 O 60.018 -1.28309 1.42293 0
M  V30 608 C 60.212 1.72673 3.1292 0
M  V30 609 C 60.041 3.24853 3.10967 0
M  V30 610 C 58.811 3.93998 3.16376 0
M  V30 611 C 61.009 4.21674 2.94441 0
M  V30 612 N 58.991 5.33192 3.04268 0
M  V30 613 C 60.362 5.47756 2.90453 0
M  V30 614 C 62.417 4.12457 2.78897 0
M  V30 615 C 61.12 6.6568 2.72512 0
M  V30 616 C 63.146 5.3004 2.62319 0
M  V30 617 C 62.508 6.55046 2.59026 0
M  V30 618 H 58.607 0.44685 0.641755 0
M  V30 619 H 61.191 1.55753 1.16829 0
M  V30 620 H 59.362 1.26679 3.67161 0
M  V30 621 H 61.094 1.49824 3.75945 0
M  V30 622 H 57.849 3.45052 3.24401 0
M  V30 623 H 58.273 6.06157 3.015 0
M  V30 624 H 62.915 3.16588 2.80235 0
M  V30 625 H 60.633 7.61689 2.69919 0
M  V30 626 H 64.219 5.24747 2.5126 0
M  V30 627 H 63.099 7.44498 2.46357 0
M  V30 628 N 60.6021 -1.18246 1.0419 0
M  V30 629 C 61.8301 -1.92195 0.766072 0
M  V30 630 C 62.2451 -1.76247 -0.676933 0
M  V30 631 O 61.6021 -1.09293 -1.46155 0
M  V30 632 C 61.6531 -3.43568 1.12442 0
M  V30 633 O 61.3741 -3.59015 2.51078 0
M  V30 634 C 62.8751 -4.34613 0.873275 0
M  V30 635 H 60.0951 -0.610114 0.279288 0
M  V30 636 H 62.6391 -1.50007 1.38989 0
M  V30 637 H 60.7941 -3.8354 0.545542 0
M  V30 638 H 61.2081 -4.5273 2.64831 0
M  V30 639 H 62.6821 -5.39374 1.17385 0
M  V30 640 H 63.1591 -4.38781 -0.191909 0
M  V30 641 H 63.7651 -4.00341 1.43551 0
M  V30 642 N 62.0802 -0.821533 -1.34494 0
M  V30 643 C 63.3052 -0.420873 -2.03085 0
M  V30 644 C 63.7302 0.964915 -1.61465 0
M  V30 645 O 63.0882 1.62763 -0.798607 0
M  V30 646 C 63.1362 -0.529414 -3.56693 0
M  V30 647 O 62.2402 0.451302 -4.09923 0
M  V30 648 H 61.5812 -0.173489 -0.640935 0
M  V30 649 H 64.1112 -1.11157 -1.71771 0
M  V30 650 H 64.1212 -0.404671 -4.05988 0
M  V30 651 H 62.7962 -1.54014 -3.86332 0
M  V30 652 H 61.3732 0.285558 -3.71805 0
M  V30 653 N 63.5583 1.46682 -0.576371 0
M  V30 654 C 64.7863 2.06798 -0.0649635 0
M  V30 655 C 65.2013 1.42612 1.23723 0
M  V30 656 O 64.5583 0.529203 1.74659 0
M  V30 657 C 64.6093 3.6132 0.114202 0
M  V30 658 O 64.3303 4.23104 -1.13644 0
M  V30 659 C 65.8313 4.38349 0.66069 0
M  V30 660 H 63.0513 0.668778 -0.0545616 0
M  V30 661 H 65.5953 1.88404 -0.795237 0
M  V30 662 H 63.7503 3.79162 0.794673 0
M  V30 663 H 64.1643 5.15894 -0.946253 0
M  V30 664 H 65.6383 5.47081 0.73526 0
M  V30 665 H 66.1153 4.05953 1.67627 0
M  V30 666 H 66.7213 4.25297 0.0152951 0
M  V30 667 N 65.0364 0.313813 1.54444 0
M  V30 668 C 65.9994 -0.54379 2.22656 0
M  V30 669 C 66.9994 -1.05124 1.21678 0
M  V30 670 O 68.1894 -0.945225 1.46325 0
M  V30 671 C 65.3214 -1.75427 2.92298 0
M  V30 672 H 66.5144 0.0523599 2.99854 0
M  V30 673 H 64.0674 0.0647834 1.56166 0
M  V30 674 H 64.8024 -2.38991 2.19211 0
M  V30 675 H 64.5874 -1.39791 3.66334 0
M  V30 676 H 66.0774 -2.36325 3.44297 0
M  V30 677 N 66.5145 -1.57545 0.0417849 0
M  V30 678 C 67.9305 -1.56467 -0.314704 0
M  V30 679 C 68.1305 -1.04859 -1.72066 0
M  V30 680 O 67.1865 -0.700983 -2.42575 0
M  V30 681 C 68.4995 -3.00317 -0.15174 0
M  V30 682 C 70.0475 -3.12201 -0.223553 0
M  V30 683 C 70.5225 -4.57913 -0.0892295 0
M  V30 684 N 72.0135 -4.6297 -0.145808 0
M  V30 685 C 72.7485 -5.73362 -0.0658459 0
M  V30 686 N 72.2445 -6.92769 0.0659282 0
M  V30 687 N 74.0375 -5.6197 -0.12075 0
M  V30 688 H 66.1885 -1.89416 0.961014 0
M  V30 689 H 68.4515 -0.871862 0.372237 0
M  V30 690 H 68.1575 -3.42073 0.817254 0
M  V30 691 H 68.0315 -3.65892 -0.916692 0
M  V30 692 H 70.4185 -2.70349 -1.18301 0
M  V30 693 H 70.4995 -2.49323 0.571994 0
M  V30 694 H 70.1435 -5.00448 0.866867 0
M  V30 695 H 70.0735 -5.18786 -0.903802 0
M  V30 696 H 72.5645 -3.7709 -0.247286 0
M  V30 697 H 72.8775 -7.72707 0.119905 0
M  V30 698 H 71.2225 -6.94927 0.100885 0
M  V30 699 H 74.4135 -4.67572 -0.222187 0
M  V30 700 H 74.5865 -6.47977 -0.0549735 0
M  V30 701 N 67.9926 0.231505 -1.5589 0
M  V30 702 C 69.2206 0.974505 -1.82513 0
M  V30 703 C 69.6356 1.78344 -0.619591 0
M  V30 704 O 68.9926 1.77792 0.411848 0
M  V30 705 C 69.0436 1.90007 -3.07538 0
M  V30 706 O 68.7646 1.12385 -4.2344 0
M  V30 707 C 70.2656 2.75779 -3.47075 0
M  V30 708 H 67.4856 0.286065 -0.606966 0
M  V30 709 H 70.0296 0.249739 -2.02969 0
M  V30 710 H 68.1846 2.57891 -2.89086 0
M  V30 711 H 68.5986 1.75125 -4.944 0
M  V30 712 H 70.0726 3.36443 -4.37619 0
M  V30 713 H 70.5496 3.47672 -2.68367 0
M  V30 714 H 71.1556 2.13323 -3.67931 0
M  V30 715 N 69.4707 1.49531 0.497807 0
M  V30 716 C 70.7167 1.59415 1.25358 0
M  V30 717 C 71.0497 0.281422 1.9215 0
M  V30 718 O 70.3247 -0.715249 1.80871 0
M  V30 719 C 70.6077 2.75566 2.3181 0
M  V30 720 C 70.4607 4.16642 1.69498 0
M  V30 721 C 71.7797 2.87347 3.33346 0
M  V30 722 H 68.8987 0.580244 0.454408 0
M  V30 723 H 71.5407 1.81827 0.551262 0
M  V30 724 H 69.6907 2.56587 2.91711 0
M  V30 725 H 71.3627 4.47145 1.13399 0
M  V30 726 H 69.6057 4.22141 0.998978 0
M  V30 727 H 70.2767 4.93792 2.46725 0
M  V30 728 H 72.7527 3.04634 2.83438 0
M  V30 729 H 71.6287 3.70289 4.05188 0
M  V30 730 H 71.8897 1.96834 3.95865 0
M  V30 731 N 70.9488 -0.749086 1.3866 0
M  V30 732 C 71.9118 -1.84457 1.36045 0
M  V30 733 C 72.9118 -1.58682 0.260122 0
M  V30 734 O 74.1018 -1.66343 0.517261 0
M  V30 735 C 71.2338 -3.22008 1.11911 0
M  V30 736 H 72.4268 -1.88182 2.33512 0
M  V30 737 H 69.9798 -0.951266 1.24019 0
M  V30 738 H 70.7148 -3.2395 0.150686 0
M  V30 739 H 70.4998 -3.42111 1.91579 0
M  V30 740 H 71.9898 -4.0208 1.12788 0
M  V30 741 N 72.4269 -1.23603 -0.977757 0
M  V30 742 C 73.6729 -1.07129 -1.72195 0
M  V30 743 C 74.0059 0.390501 -1.90233 0
M  V30 744 O 73.2809 1.28902 -1.45653 0
M  V30 745 C 73.5639 -1.80031 -3.11867 0
M  V30 746 C 73.4169 -3.33899 -3.01383 0
M  V30 747 C 74.7359 -1.56492 -4.11337 0
M  V30 748 H 71.8549 -0.390571 -0.624999 0
M  V30 749 H 74.4969 -1.52142 -1.13811 0
M  V30 750 H 72.6469 -1.41768 -3.6171 0
M  V30 751 H 74.3189 -3.81699 -2.59043 0
M  V30 752 H 72.5619 -3.62796 -2.37827 0
M  V30 753 H 73.2329 -3.801 -4.00285 0
M  V30 754 H 75.7089 -1.89757 -3.70313 0
M  V30 755 H 74.5849 -2.09973 -5.07151 0
M  V30 756 H 74.8459 -0.500874 -4.39254 0
M  V30 757 N 73.905 1.17692 -1.04816 0
M  V30 758 C 75.321 1.39863 -0.768794 0
M  V30 759 C 75.521 1.91118 0.638451 0
M  V30 760 O 74.577 2.10036 1.40146 0
M  V30 761 C 75.89 2.39274 -1.82122 0
M  V30 762 C 77.438 2.52987 -1.843 0
M  V30 763 C 77.913 3.55669 -2.88555 0
M  V30 764 N 79.404 3.63183 -2.87493 0
M  V30 765 C 80.139 4.42381 -3.64811 0
M  V30 766 N 79.635 5.25125 -4.51903 0
M  V30 767 N 81.428 4.37217 -3.53267 0
M  V30 768 H 73.579 0.82752 -1.95617 0
M  V30 769 H 75.842 0.426123 -0.846831 0
M  V30 770 H 75.548 2.08678 -2.83102 0
M  V30 771 H 75.422 3.38725 -1.65967 0
M  V30 772 H 77.809 2.82896 -0.839869 0
M  V30 773 H 77.89 1.53623 -2.04532 0
M  V30 774 H 77.534 3.26499 -3.89051 0
M  V30 775 H 77.464 4.54728 -2.65575 0
M  V30 776 H 79.955 3.04103 -2.24343 0
M  V30 777 H 80.268 5.82728 -5.07591 0
M  V30 778 H 78.613 5.24519 -4.55966 0
M  V30 779 H 81.804 3.71626 -2.84625 0
M  V30 780 H 81.977 4.98696 -4.13771 0
M  V30 781 N 75.3831 0.828654 1.34056 0
M  V30 782 C 76.6291 0.42008 1.98402 0
M  V30 783 C 76.9621 -1.01564 1.65525 0
M  V30 784 O 76.2371 -1.70834 0.929831 0
M  V30 785 C 76.5201 0.62927 3.54559 0
M  V30 786 C 76.3731 2.11152 3.97159 0
M  V30 787 C 77.6921 0.0688756 4.40046 0
M  V30 788 H 74.8111 0.154104 0.720709 0
M  V30 789 H 77.4531 1.04228 1.5886 0
M  V30 790 H 75.6031 0.0996418 3.88372 0
M  V30 791 H 77.2751 2.70522 3.73651 0
M  V30 792 H 75.5181 2.59985 3.47261 0
M  V30 793 H 76.1891 2.20868 5.05887 0
M  V30 794 H 78.6651 0.521458 4.1282 0
M  V30 795 H 77.5411 0.245006 5.48353 0
M  V30 796 H 77.8021 -1.0266 4.30015 0
M  V30 797 N 76.8612 -1.46375 0.584142 0
M  V30 798 C 77.8092 -2.32042 -0.161047 0
M  V30 799 C 78.8032 -1.44569 -0.882966 0
M  V30 800 O 80.0092 -1.61186 -0.801191 0
M  V30 801 H 76.3842 -0.748659 -0.0708033 0
M  V30 802 H 78.3552 -2.92704 0.580269 0
M  V30 803 C 77.1042 -3.27762 -1.1605 0
M  V30 804 H 76.4272 -3.95051 -0.614419 0
M  V30 805 H 77.8672 -3.90481 -1.65228 0
M  V30 806 C 76.3262 -2.53218 -2.22221 0
M  V30 807 O 76.8562 -2.29628 -3.29597 0
M  V30 808 N 75.0622 -2.13756 -1.96868 0
M  V30 809 H 74.6092 -2.33142 -1.09557 0
M  V30 810 H 74.5672 -1.642 -2.68115 0
M  V30 811 N 78.3393 -0.321999 -1.54275 0
M  V30 812 C 79.5873 0.280489 -2.00144 0
M  V30 813 C 79.9083 1.52777 -1.21178 0
M  V30 814 O 79.1783 1.9338 -0.313187 0
M  V30 815 H 77.7583 0.106632 -0.73935 0
M  V30 816 H 80.4203 -0.438184 -1.8991 0
M  V30 817 H 79.5163 0.537972 -3.07428 0
M  V30 818 N 79.8174 1.5752 -0.0501392 0
M  V30 819 C 81.0454 1.96963 0.633492 0
M  V30 820 C 81.4604 0.927631 1.6444 0
M  V30 821 O 80.8174 -0.0882665 1.82286 0
M  V30 822 C 80.8684 3.36487 1.32132 0
M  V30 823 O 80.5894 4.36693 0.350894 0
M  V30 824 C 82.0904 3.90682 2.09481 0
M  V30 825 H 79.3104 0.648244 0.173266 0
M  V30 826 H 81.8544 2.0417 -0.116134 0
M  V30 827 H 80.0094 3.30434 2.02218 0
M  V30 828 H 80.4234 5.17702 0.841735 0
M  V30 829 H 81.8974 4.90591 2.5303 0
M  V30 830 H 82.3744 3.26053 2.94255 0
M  V30 831 H 82.9804 4.00069 1.44307 0
M  V30 832 N 81.2955 -0.223234 1.56011 0
M  V30 833 C 82.2055 -1.29766 1.95443 0
M  V30 834 C 83.2215 -1.51373 0.858028 0
M  V30 835 O 84.3975 -1.64536 1.16146 0
M  V30 836 C 81.4625 -2.62772 2.26167 0
M  V30 837 C 80.5235 -2.49482 3.49367 0
M  V30 838 C 79.7565 -3.76145 3.78616 0
M  V30 839 O 79.9795 -4.79087 3.09568 0
M  V30 840 O 78.9135 -3.73358 4.72109 0
M  V30 841 H 82.7395 -0.99309 2.87004 0
M  V30 842 H 80.3245 -0.425958 1.43199 0
M  V30 843 H 82.2065 -3.41327 2.47131 0
M  V30 844 H 80.8815 -2.92913 1.37781 0
M  V30 845 H 79.7885 -1.69133 3.33684 0
M  V30 846 H 81.1215 -2.2428 4.38131 0
M  V30 847 N 82.7736 -1.49793 -0.48987 0
M  V30 848 C 83.7236 -1.63673 -1.5873 0
M  V30 849 C 84.7076 -0.491956 -1.53195 0
M  V30 850 O 85.8996 -0.745461 -1.60536 0
M  V30 851 C 83.0286 -1.71689 -2.97284 0
M  V30 852 C 82.1146 -2.91781 -3.07774 0
M  V30 853 N 82.5056 -4.15714 -2.88124 0
M  V30 854 C 80.8036 -2.89949 -3.38889 0
M  V30 855 C 81.5046 -4.965 -3.03088 0
M  V30 856 N 80.4806 -4.30083 -3.3246 0
M  V30 857 H 84.2826 -2.57204 -1.42208 0
M  V30 858 H 81.7966 -1.46719 -0.69623 0
M  V30 859 H 83.7936 -1.79732 -3.76168 0
M  V30 860 H 82.4536 -0.793024 -3.14867 0
M  V30 861 H 83.4646 -4.45515 -2.64077 0
M  V30 862 H 80.1416 -2.06987 -3.62578 0
M  V30 863 H 81.5316 -6.04991 -2.92294 0
M  V30 864 N 84.2517 0.741722 -1.39055 0
M  V30 865 C 85.4977 1.50336 -1.36113 0
M  V30 866 C 85.8307 1.94148 0.0450796 0
M  V30 867 O 85.1057 1.66301 1.00868 0
M  V30 868 C 85.3887 2.74773 -2.32749 0
M  V30 869 C 85.2417 2.37023 -3.82283 0
M  V30 870 C 86.5607 3.76846 -2.27322 0
M  V30 871 H 83.6797 0.545351 -0.495743 0
M  V30 872 H 86.3217 0.848624 -1.69995 0
M  V30 873 H 84.4717 3.30639 -2.03986 0
M  V30 874 H 86.1437 1.8684 -4.21768 0
M  V30 875 H 84.3867 1.69334 -3.99385 0
M  V30 876 H 85.0577 3.26104 -4.45376 0
M  V30 877 H 87.5337 3.30548 -2.5274 0
M  V30 878 H 86.4097 4.6159 -2.97028 0
M  V30 879 H 86.6707 4.23286 -1.27599 0
M  V30 880 N 85.7298 1.2412 0.971189 0
M  V30 881 C 86.6628 0.97373 2.06382 0
M  V30 882 C 87.6408 -0.0912662 1.62344 0
M  V30 883 O 88.8248 0.0449365 1.88446 0
M  V30 884 C 85.9518 0.468746 3.35441 0
M  V30 885 C 84.9978 1.52176 3.98428 0
M  V30 886 S 85.8308 3.10203 4.36503 0
M  V30 887 C 86.9868 2.61398 5.68702 0
M  V30 888 H 87.2198 1.89893 2.28753 0
M  V30 889 H 84.7528 1.07466 1.10862 0
M  V30 890 H 86.7108 0.184012 4.10087 0
M  V30 891 H 85.3718 -0.435688 3.11064 0
M  V30 892 H 84.5648 1.11876 4.91426 0
M  V30 893 H 84.1668 1.75632 3.30196 0
M  V30 894 H 86.4588 2.03992 6.4606 0
M  V30 895 H 87.4018 3.52972 6.13854 0
M  V30 896 H 87.8098 2.01941 5.27143 0
M  V30 897 N 87.2079 -1.17134 1.05439 0
M  V30 898 C 88.4359 -1.91372 0.786414 0
M  V30 899 C 88.8509 -1.76955 -0.658202 0
M  V30 900 O 88.2079 -1.10838 -1.44987 0
M  V30 901 C 88.2589 -3.42356 1.1608 0
M  V30 902 O 87.9799 -3.56332 2.54871 0
M  V30 903 C 89.4809 -4.33663 0.919322 0
M  V30 904 H 86.7009 -0.607118 0.285743 0
M  V30 905 H 89.2449 -1.48525 1.40572 0
M  V30 906 H 87.3999 -3.82939 0.586191 0
M  V30 907 H 87.8139 -4.49896 2.69618 0
M  V30 908 H 89.2879 -5.38099 1.231 0
M  V30 909 H 89.7649 -4.38959 -0.145359 0
M  V30 910 H 90.3709 -3.98796 1.47789 0
M  V30 911 N 88.686 -0.835752 -1.33615 0
M  V30 912 C 89.911 -0.442389 -2.02627 0
M  V30 913 C 90.336 0.947735 -1.62479 0
M  V30 914 O 89.694 1.61907 -0.815826 0
M  V30 915 C 89.742 -0.567216 -3.56111 0
M  V30 916 O 88.846 0.407799 -4.10379 0
M  V30 917 H 88.187 -0.180278 -0.639059 0
M  V30 918 H 90.717 -1.12972 -1.70583 0
M  V30 919 H 90.727 -0.447708 -4.05536 0
M  V30 920 H 89.402 -1.58103 -3.84677 0
M  V30 921 H 87.979 0.246107 -3.72087 0
M  V30 922 N 90.1641 1.46063 -0.591896 0
M  V30 923 C 91.0941 2.33172 0.123673 0
M  V30 924 C 92.0751 1.45897 0.87453 0
M  V30 925 O 93.2601 1.74698 0.848181 0
M  V30 926 C 90.3901 3.28336 1.13194 0
M  V30 927 C 89.3441 4.25124 0.495324 0
M  V30 928 C 88.6701 5.09863 1.61071 0
M  V30 929 C 89.9701 5.19143 -0.573425 0
M  V30 930 H 91.6641 2.93252 -0.603646 0
M  V30 931 H 89.2101 1.41014 -0.291741 0
M  V30 932 H 91.1631 3.88137 1.64097 0
M  V30 933 H 89.8871 2.66383 1.88965 0
M  V30 934 H 88.5461 3.66599 0.00729452 0
M  V30 935 H 88.1941 4.44288 2.35832 0
M  V30 936 H 87.8941 5.75417 1.19035 0
M  V30 937 H 89.4181 5.72529 2.12233 0
M  V30 938 H 90.8321 5.73106 -0.1491 0
M  V30 939 H 89.2291 5.93089 -0.914636 0
M  V30 940 H 90.2991 4.62519 -1.45617 0
M  V30 941 N 91.6422 0.330177 1.54103 0
M  V30 942 C 92.8902 -0.269871 2.0029 0
M  V30 943 C 93.2112 -1.52133 1.21986 0
M  V30 944 O 92.4812 -1.93212 0.323438 0
M  V30 945 H 91.0612 -0.10271 0.739905 0
M  V30 946 H 93.7232 0.448249 1.89675 0
M  V30 947 H 92.8192 -0.52166 3.07709 0
M  V30 948 N 93.1203 -1.57491 0.0584922 0
M  V30 949 C 94.3683 -1.92597 -0.612436 0
M  V30 950 C 94.6893 -0.938162 -1.70949 0
M  V30 951 O 93.9593 0.0158301 -1.95894 0
M  V30 952 H 92.5393 -0.710964 -0.229214 0
M  V30 953 H 95.2013 -1.94571 0.113218 0
M  V30 954 H 94.2973 -2.94038 -1.04633 0
M  V30 955 N 94.5984 0.214957 -1.56127 0
M  V30 956 C 95.8464 0.936518 -1.79091 0
M  V30 957 C 96.1674 1.84606 -0.628148 0
M  V30 958 O 95.4374 1.92664 0.35462 0
M  V30 959 H 94.0174 0.3488 -0.660566 0
M  V30 960 H 96.6794 0.22523 -1.93594 0
M  V30 961 H 95.7754 1.53943 -2.71492 0
M  V30 962 N 96.0765 1.50051 0.48192 0
M  V30 963 C 97.3255 1.59741 1.23149 0
M  V30 964 C 97.6385 0.298163 1.93314 0
M  V30 965 O 98.8445 0.273835 2.70116 0
M  V30 966 C 97.3005 2.81926 2.23708 0
M  V30 967 C 96.9085 4.18685 1.59396 0
M  V30 968 C 98.6525 3.00956 2.99375 0
M  V30 969 C 96.5595 5.3207 2.58178 0
M  V30 970 H 95.4895 0.594838 0.46334 0
M  V30 971 H 98.1405 1.76467 0.503169 0
M  V30 972 H 96.5225 2.58736 2.99786 0
M  V30 973 H 97.6965 4.52088 0.891811 0
M  V30 974 H 96.0115 4.05171 0.960503 0
M  V30 975 H 98.6085 3.82836 3.73283 0
M  V30 976 H 98.9515 2.12258 3.58123 0
M  V30 977 H 99.4845 3.24277 2.30411 0
M  V30 978 H 96.2235 6.22888 2.04184 0
M  V30 979 H 95.7435 5.03098 3.26577 0
M  V30 980 H 97.4225 5.62196 3.20225 0
M  V30 981 N 97.5546 -0.734337 1.39446 0
M  V30 982 C 98.7846 -1.52137 1.39778 0
M  V30 983 C 99.1926 -1.89198 -0.00929312 0
M  V30 984 O 98.5356 -1.54666 -0.991168 0
M  V30 985 C 98.5976 -2.83762 2.20724 0
M  V30 986 C 98.2616 -2.69131 3.69347 0
M  V30 987 C 99.2586 -2.37635 4.62413 0
M  V30 988 C 96.9436 -2.85982 4.1294 0
M  V30 989 C 98.9376 -2.23172 5.97054 0
M  V30 990 C 96.6246 -2.71137 5.47657 0
M  V30 991 C 97.6226 -2.39777 6.39528 0
M  V30 992 O 97.3106 -2.25026 7.71763 0
M  V30 993 H 97.0426 -0.476717 0.479288 0
M  V30 994 H 99.5966 -0.915012 1.83893 0
M  V30 995 H 97.8266 -3.4666 1.71359 0
M  V30 996 H 99.5156 -3.45383 2.13226 0
M  V30 997 H 100.282 -2.24267 4.30034 0
M  V30 998 H 96.1606 -3.09383 3.41765 0
M  V30 999 H 99.7046 -1.98617 6.68728 0
M  V30 1000 H 95.6016 -2.84083 5.79626 0
M  V30 1001 H 96.3696 -2.40091 7.82495 0
M  V30 1002 N 99.0327 -1.24633 -0.964593 0
M  V30 1003 C 99.9427 -1.05859 -2.09359 0
M  V30 1004 C 100.959 0.00148855 -1.74 0
M  V30 1005 O 102.135 -0.197346 -2.00431 0
M  V30 1006 C 99.1997 -0.668879 -3.40187 0
M  V30 1007 C 98.2607 -1.80578 -3.89474 0
M  V30 1008 C 97.4937 -1.43457 -5.14058 0
M  V30 1009 O 97.7167 -0.325775 -5.69469 0
M  V30 1010 O 96.6507 -2.2613 -5.57807 0
M  V30 1011 H 100.477 -2.00516 -2.28094 0
M  V30 1012 H 98.0617 -1.03481 -1.0776 0
M  V30 1013 H 99.9437 -0.463211 -4.18846 0
M  V30 1014 H 98.6187 0.248536 -3.22744 0
M  V30 1015 H 97.5257 -2.06623 -3.11862 0
M  V30 1016 H 98.8587 -2.70208 -4.11398 0
M  V30 1017 N 100.511 1.16574 -1.06058 0
M  V30 1018 C 101.441 2.23057 -0.690488 0
M  V30 1019 C 102.422 1.67141 0.315901 0
M  V30 1020 O 103.607 1.93253 0.191556 0
M  V30 1021 C 100.737 3.47222 -0.073625 0
M  V30 1022 C 99.6908 4.16016 -1.00573 0
M  V30 1023 C 99.0168 5.34104 -0.252289 0
M  V30 1024 C 100.317 4.67264 -2.33371 0
M  V30 1025 H 102.011 2.54271 -1.58072 0
M  V30 1026 H 99.5568 1.22218 -0.76149 0
M  V30 1027 H 101.51 4.20939 0.19714 0
M  V30 1028 H 100.234 3.15302 0.85161 0
M  V30 1029 H 98.8928 3.44223 -1.2612 0
M  V30 1030 H 98.5408 4.98437 0.675988 0
M  V30 1031 H 98.2408 5.81072 -0.873455 0
M  V30 1032 H 99.7648 6.10599 0.0109857 0
M  V30 1033 H 101.179 5.32573 -2.12223 0
M  V30 1034 H 99.5758 5.24843 -2.90963 0
M  V30 1035 H 100.646 3.83602 -2.96611 0
M  V30 1036 N 101.989 0.842826 1.3317 0
M  V30 1037 C 102.899 0.281444 2.32906 0
M  V30 1038 C 103.915 -0.594587 1.63526 0
M  V30 1039 O 105.091 -0.49777 1.95152 0
M  V30 1040 C 102.156 -0.530929 3.42611 0
M  V30 1041 C 101.217 0.369843 4.27704 0
M  V30 1042 C 100.45 -0.403853 5.3217 0
M  V30 1043 O 100.673 -1.63513 5.46461 0
M  V30 1044 O 99.6069 0.224199 6.01482 0
M  V30 1045 H 103.433 1.10744 2.82789 0
M  V30 1046 H 101.018 0.60545 1.36582 0
M  V30 1047 H 102.9 -0.992437 4.09547 0
M  V30 1048 H 101.575 -1.33392 2.94938 0
M  V30 1049 H 100.482 0.879275 3.6362 0
M  V30 1050 H 101.815 1.13771 4.78871 0
M  V30 1051 N 103.467 -1.45747 0.599634 0
M  V30 1052 C 104.397 -2.33235 -0.111306 0
M  V30 1053 C 105.378 -1.46359 -0.866781 0
M  V30 1054 O 106.563 -1.75146 -0.838904 0
M  V30 1055 C 103.693 -3.28932 -1.11451 0
M  V30 1056 C 102.647 -4.25381 -0.472772 0
M  V30 1057 C 101.973 -5.1071 -1.58365 0
M  V30 1058 C 103.273 -5.18831 0.600948 0
M  V30 1059 H 104.967 -2.92927 0.61919 0
M  V30 1060 H 102.513 -1.40857 0.299215 0
M  V30 1061 H 104.466 -3.89002 -1.62036 0
M  V30 1062 H 103.19 -2.67381 -1.8755 0
M  V30 1063 H 101.849 -3.66598 0.0121472 0
M  V30 1064 H 101.497 -4.45533 -2.33473 0
M  V30 1065 H 101.197 -5.7604 -1.15982 0
M  V30 1066 H 102.721 -5.73647 -2.09194 0
M  V30 1067 H 104.135 -5.73019 0.179491 0
M  V30 1068 H 102.532 -5.92595 0.946076 0
M  V30 1069 H 103.602 -4.6174 1.48068 0
M  V30 1070 N 104.945 -0.338344 -1.53925 0
M  V30 1071 C 106.356 0.146651 -1.86123 0
M  V30 1072 C 106.707 1.5042 -1.2597 0
M  V30 1073 O 105.832 2.08723 -0.571294 0
M  V30 1074 C 106.427 0.272879 -3.37699 0
M  V30 1075 C 104.986 0.702103 -3.69794 0
M  V30 1076 C 104.133 -0.167304 -2.76795 0
M  V30 1077 H 107.084 -0.558123 -1.48562 0
M  V30 1078 H 107.105 1.10128 -3.64214 0
M  V30 1079 H 106.617 -0.715307 -3.81451 0
M  V30 1080 H 104.718 1.6995 -3.31584 0
M  V30 1081 H 104.831 0.495604 -4.7653 0
M  V30 1082 H 103.195 0.359527 -2.5215 0
M  V30 1083 H 103.978 -1.15253 -3.23375 0
M  V30 1084 N 106.423 1.57458 -0.0668435 0
M  V30 1085 C 107.669 1.93587 0.6043 0
M  V30 1086 C 108.002 0.946722 1.69561 0
M  V30 1087 O 107.277 -0.0248516 1.94484 0
M  V30 1088 C 107.56 3.40014 1.18585 0
M  V30 1089 C 107.413 4.49685 0.101529 0
M  V30 1090 C 108.732 3.87154 2.09284 0
M  V30 1091 H 105.851 0.703958 0.218202 0
M  V30 1092 H 108.493 1.89542 -0.131804 0
M  V30 1093 H 106.643 3.43592 1.81319 0
M  V30 1094 H 108.315 4.5823 -0.531279 0
M  V30 1095 H 106.558 4.30059 -0.568487 0
M  V30 1096 H 107.229 5.49266 0.54874 0
M  V30 1097 H 109.705 3.85551 1.56491 0
M  V30 1098 H 108.581 4.90231 2.46911 0
M  V30 1099 H 108.842 3.2481 2.99918 0
M  V30 1100 N 107.901 -0.206675 1.56239 0
M  V30 1101 C 109.149 -0.927007 1.79586 0
M  V30 1102 C 109.47 -1.8427 0.637929 0
M  V30 1103 O 108.74 -1.92849 -0.344398 0
M  V30 1104 H 107.32 -0.345292 0.662407 0
M  V30 1105 H 109.982 -0.21496 1.93711 0
M  V30 1106 H 109.078 -1.52501 2.72305 0
M  V30 1107 N 109.379 -1.50304 -0.473955 0
M  V30 1108 C 110.79 -1.54042 -1.0549 0
M  V30 1109 C 111.141 -0.342248 -1.93192 0
M  V30 1110 O 110.266 0.545157 -2.09421 0
M  V30 1111 C 110.861 -2.79152 -1.91989 0
M  V30 1112 C 109.42 -2.8558 -2.45196 0
M  V30 1113 C 108.567 -2.48295 -1.2347 0
M  V30 1114 H 111.518 -1.5661 -0.256693 0
M  V30 1115 H 111.539 -2.60845 -2.7702 0
M  V30 1116 H 111.051 -3.66339 -1.28131 0
M  V30 1117 H 109.152 -2.02738 -3.12615 0
M  V30 1118 H 109.265 -3.88403 -2.80499 0
M  V30 1119 H 107.629 -2.00669 -1.56856 0
M  V30 1120 H 108.412 -3.37787 -0.612789 0
M  V30 1121 N 110.857 0.726932 -1.39834 0
M  V30 1122 C 112.105 1.4837 -1.37225 0
M  V30 1123 C 112.426 1.94979 0.0284857 0
M  V30 1124 O 111.696 1.69555 0.981213 0
M  V30 1125 H 110.276 0.55043 -0.505011 0
M  V30 1126 H 112.938 0.862468 -1.74778 0
M  V30 1127 H 112.034 2.36198 -2.04003 0
M  V30 1128 N 112.336 1.25143 0.95797 0
M  V30 1129 C 113.299 1.05321 2.03569 0
M  V30 1130 C 114.299 0.007152 1.60798 0
M  V30 1131 O 115.489 0.24903 1.72411 0
M  V30 1132 C 112.621 0.598394 3.35607 0
M  V30 1133 H 113.814 2.00986 2.22586 0
M  V30 1134 H 111.367 1.07502 1.13459 0
M  V30 1135 H 112.102 -0.361014 3.22284 0
M  V30 1136 H 111.887 1.35351 3.67998 0
M  V30 1137 H 113.377 0.48104 4.1482 0
M  V30 1138 N 113.814 -1.1601 1.06675 0
M  V30 1139 C 115.23 -1.38622 0.790948 0
M  V30 1140 C 115.43 -1.92109 -0.607965 0
M  V30 1141 O 114.486 -2.12239 -1.36787 0
M  V30 1142 C 115.799 -2.36347 1.85905 0
M  V30 1143 C 117.347 -2.50023 1.88301 0
M  V30 1144 C 117.822 -3.51033 2.94176 0
M  V30 1145 N 119.313 -3.58563 2.93235 0
M  V30 1146 C 120.048 -4.36521 3.71803 0
M  V30 1147 N 119.544 -5.17869 4.602 0
M  V30 1148 N 121.337 -4.31541 3.60178 0
M  V30 1149 H 113.488 -0.796294 1.96908 0
M  V30 1150 H 115.751 -0.412597 0.853503 0
M  V30 1151 H 115.457 -2.04147 2.86386 0
M  V30 1152 H 115.331 -3.36042 1.71334 0
M  V30 1153 H 117.718 -2.81524 0.884769 0
M  V30 1154 H 117.799 -1.5035 2.06951 0
M  V30 1155 H 117.443 -3.20268 3.94196 0
M  V30 1156 H 117.373 -4.50445 2.72776 0
M  V30 1157 H 119.864 -3.00496 2.29152 0
M  V30 1158 H 120.177 -5.74578 5.16797 0
M  V30 1159 H 118.522 -5.17199 4.64253 0
M  V30 1160 H 121.713 -3.67051 2.90502 0
M  V30 1161 H 121.886 -4.9205 4.21653 0
M  V30 1162 N 115.292 -0.849877 -1.32721 0
M  V30 1163 C 116.522 -0.46408 -2.0132 0
M  V30 1164 C 116.93 0.94246 -1.64056 0
M  V30 1165 O 116.273 1.6257 -0.855379 0
M  V30 1166 C 116.335 -0.517887 -3.5575 0
M  V30 1167 C 115.999 -1.88248 -4.16427 0
M  V30 1168 C 116.996 -2.84726 -4.35002 0
M  V30 1169 C 114.681 -2.17832 -4.52609 0
M  V30 1170 C 116.675 -4.08945 -4.8892 0
M  V30 1171 C 114.362 -3.42304 -5.06232 0
M  V30 1172 C 115.36 -4.37677 -5.24335 0
M  V30 1173 O 115.048 -5.59946 -5.76815 0
M  V30 1174 H 114.78 -0.181327 -0.651227 0
M  V30 1175 H 117.334 -1.14713 -1.70382 0
M  V30 1176 H 115.564 0.221997 -3.86062 0
M  V30 1177 H 117.253 -0.148366 -4.05629 0
M  V30 1178 H 118.019 -2.63174 -4.07388 0
M  V30 1179 H 113.898 -1.44385 -4.37806 0
M  V30 1180 H 117.442 -4.83396 -5.02966 0
M  V30 1181 H 113.339 -3.63709 -5.33278 0
M  V30 1182 H 114.107 -5.61838 -5.95214 0
M  V30 1183 N 116.77 1.45427 -0.607355 0
M  V30 1184 C 117.7 2.3329 0.0989352 0
M  V30 1185 C 118.681 1.46816 0.859007 0
M  V30 1186 O 119.866 1.75588 0.829604 0
M  V30 1187 C 116.996 3.29518 1.09705 0
M  V30 1188 C 115.95 4.25626 0.450206 0
M  V30 1189 C 115.276 5.11542 1.55655 0
M  V30 1190 C 116.576 5.18505 -0.628455 0
M  V30 1191 H 118.27 2.92595 -0.634716 0
M  V30 1192 H 115.816 1.40696 -0.306681 0
M  V30 1193 H 117.769 3.89855 1.59971 0
M  V30 1194 H 116.493 2.68372 1.86129 0
M  V30 1195 H 115.152 3.66586 -0.0315886 0
M  V30 1196 H 114.8 4.46765 2.31107 0
M  V30 1197 H 114.5 5.76647 1.12925 0
M  V30 1198 H 116.024 5.74748 2.06148 0
M  V30 1199 H 117.438 5.72916 -0.209877 0
M  V30 1200 H 115.835 5.92085 -0.977489 0
M  V30 1201 H 116.905 4.60948 -1.50514 0
M  V30 1202 N 118.248 0.346503 1.53744 0
M  V30 1203 C 119.495 -0.249104 2.00962 0
M  V30 1204 C 119.823 -1.5032 1.23426 0
M  V30 1205 O 119.078 -1.93217 0.310761 0
M  V30 1206 C 119.377 -0.605809 3.52228 0
M  V30 1207 C 119.043 0.551747 4.47512 0
M  V30 1208 C 117.705 0.86941 4.73281 0
M  V30 1209 C 120.057 1.32818 5.03993 0
M  V30 1210 C 117.385 1.96582 5.52786 0
M  V30 1211 C 119.737 2.41486 5.84694 0
M  V30 1212 C 118.401 2.73808 6.08757 0
M  V30 1213 H 117.671 -0.0911538 0.735372 0
M  V30 1214 H 120.318 0.475027 1.85515 0
M  V30 1215 H 118.623 -1.4107 3.65522 0
M  V30 1216 H 120.32 -1.07858 3.86222 0
M  V30 1217 H 116.91 0.294102 4.2759 0
M  V30 1218 H 121.094 1.09602 4.84047 0
M  V30 1219 H 116.35 2.22045 5.69654 0
M  V30 1220 H 120.524 3.02078 6.27473 0
M  V30 1221 H 118.151 3.58892 6.7015 0
M  V30 1222 N 119.726 -1.57421 0.075193 0
M  V30 1223 C 120.972 -1.93905 -0.594025 0
M  V30 1224 C 121.305 -0.955701 -1.69056 0
M  V30 1225 O 120.58 0.0145373 -1.94495 0
M  V30 1226 C 120.863 -3.40638 -1.1678 0
M  V30 1227 C 120.716 -4.49733 -0.0776792 0
M  V30 1228 C 122.035 -3.88259 -2.07228 0
M  V30 1229 H 119.154 -0.705105 -0.214466 0
M  V30 1230 H 121.796 -1.8947 0.141854 0
M  V30 1231 H 119.946 -3.44549 -1.79494 0
M  V30 1232 H 121.618 -4.57942 0.555573 0
M  V30 1233 H 119.861 -4.29751 0.591286 0
M  V30 1234 H 120.532 -5.49549 -0.519603 0
M  V30 1235 H 123.008 -3.86376 -1.54445 0
M  V30 1236 H 121.884 -4.91533 -2.44308 0
M  V30 1237 H 122.145 -3.26396 -2.98191 0
M  V30 1238 N 121.204 0.198386 -1.56346 0
M  V30 1239 C 122.134 1.24865 -1.9731 0
M  V30 1240 C 123.115 1.47651 -0.844576 0
M  V30 1241 O 124.3 1.59444 -1.10866 0
M  V30 1242 C 121.43 2.59358 -2.30977 0
M  V30 1243 C 120.384 2.5119 -3.46537 0
M  V30 1244 C 119.71 3.89926 -3.65871 0
M  V30 1245 C 121.01 2.03977 -4.80823 0
M  V30 1246 H 122.704 0.908252 -2.85291 0
M  V30 1247 H 120.25 0.435462 -1.37258 0
M  V30 1248 H 122.203 3.33011 -2.58228 0
M  V30 1249 H 120.927 2.95132 -1.39874 0
M  V30 1250 H 119.586 1.79993 -3.19371 0
M  V30 1251 H 119.234 4.23046 -2.72105 0
M  V30 1252 H 118.934 3.85336 -4.4361 0
M  V30 1253 H 120.458 4.65205 -3.95495 0
M  V30 1254 H 121.872 2.67386 -5.07127 0
M  V30 1255 H 120.269 2.10397 -5.62008 0
M  V30 1256 H 121.339 0.992861 -4.74626 0
M  V30 1257 N 122.682 1.50554 0.465978 0
M  V30 1258 C 123.959 1.5232 1.22712 0
M  V30 1259 C 124.339 0.270807 2.09356 0
M  V30 1260 O 123.687 -0.745541 2.15995 0
M  V30 1261 C 123.897 2.82175 2.05374 0
M  V30 1262 C 125.245 3.33033 2.6339 0
M  V30 1263 O 126.269 2.83531 2.15612 0
M  V30 1264 O 125.128 4.19336 3.50456 0
M  V30 1265 H 122.222 0.611183 0.557122 0
M  V30 1266 H 124.768 1.62847 0.477381 0
M  V30 1267 H 123.54 3.64797 1.41558 0
M  V30 1268 H 123.163 2.74675 2.87471 0
M  V30 1269 N 124.16 -0.719506 1.40217 0
M  V30 1270 C 125.408 -1.47641 1.3801 0
M  V30 1271 C 125.729 -1.94992 -0.018145 0
M  V30 1272 O 124.999 -1.70073 -0.972207 0
M  V30 1273 H 123.579 -0.547744 0.507923 0
M  V30 1274 H 126.241 -0.853187 1.75233 0
M  V30 1275 H 125.337 -2.35112 2.05253 0
M  V30 1276 N 125.638 -1.25649 -0.95132 0
M  V30 1277 C 126.884 -1.10757 -1.69884 0
M  V30 1278 C 127.217 0.350061 -1.91019 0
M  V30 1279 O 126.492 1.25783 -1.48354 0
M  V30 1280 C 126.775 -1.86606 -3.07978 0
M  V30 1281 C 126.628 -3.40217 -2.94232 0
M  V30 1282 C 127.947 -1.65182 -4.07925 0
M  V30 1283 H 125.066 -0.40374 -0.616574 0
M  V30 1284 H 127.708 -1.54521 -1.10558 0
M  V30 1285 H 125.858 -1.49409 -3.58621 0
M  V30 1286 H 127.53 -3.87108 -2.50889 0
M  V30 1287 H 125.773 -3.67759 -2.30078 0
M  V30 1288 H 126.444 -3.88505 -3.92133 0
M  V30 1289 H 128.92 -1.9757 -3.66204 0
M  V30 1290 H 127.796 -2.20683 -5.02583 0
M  V30 1291 H 128.057 -0.593933 -4.38092 0
M  V30 1292 N 127.117 1.15442 -1.07289 0
M  V30 1293 C 128.528 1.67803 -0.818475 0
M  V30 1294 C 128.879 1.8489 0.656507 0
M  V30 1295 O 128.004 1.55176 1.50829 0
M  V30 1296 C 128.599 3.04805 -1.47917 0
M  V30 1297 C 127.158 3.54245 -1.27229 0
M  V30 1298 C 126.305 2.29986 -1.54925 0
M  V30 1299 H 129.256 0.996646 -1.23502 0
M  V30 1300 H 129.277 3.69702 -0.90005 0
M  V30 1301 H 128.789 2.92336 -2.55267 0
M  V30 1302 H 126.89 3.71956 -0.21899 0
M  V30 1303 H 127.003 4.35723 -1.99203 0
M  V30 1304 H 125.367 2.35496 -0.970242 0
M  V30 1305 H 126.15 2.20105 -2.63455 0
M  V30 1306 N 128.595 0.856903 1.32268 0
M  V30 1307 C 129.823 0.475439 2.01363 0
M  V30 1308 C 130.238 -0.928486 1.64392 0
M  V30 1309 O 129.595 -1.60624 0.866387 0
M  V30 1310 C 129.646 0.607545 3.56358 0
M  V30 1311 O 129.367 1.95617 3.92002 0
M  V30 1312 C 130.868 0.225382 4.42727 0
M  V30 1313 H 128.088 0.186636 0.644521 0
M  V30 1314 H 130.632 1.15446 1.68797 0
M  V30 1315 H 128.787 -0.0237719 3.87393 0
M  V30 1316 H 129.201 1.95455 4.86721 0
M  V30 1317 H 130.675 0.368813 5.50767 0
M  V30 1318 H 131.152 -0.834369 4.31202 0
M  V30 1319 H 131.758 0.831864 4.17085 0
M  V30 1320 N 130.073 -1.45103 0.615059 0
M  V30 1321 C 131.484 -1.85654 0.197383 0
M  V30 1322 C 131.835 -1.51433 -1.24749 0
M  V30 1323 O 130.96 -0.944608 -1.94695 0
M  V30 1324 C 131.555 -3.36972 0.351448 0
M  V30 1325 C 130.114 -3.76398 -0.011593 0
M  V30 1326 C 129.261 -2.69024 0.672394 0
M  V30 1327 H 132.212 -1.35797 0.821263 0
M  V30 1328 H 132.233 -3.78239 -0.414227 0
M  V30 1329 H 131.745 -3.61847 1.40314 0
M  V30 1330 H 129.846 -3.5714 -1.06217 0
M  V30 1331 H 129.959 -4.77532 0.387265 0
M  V30 1332 H 128.323 -2.54465 0.109284 0
M  V30 1333 H 129.106 -2.96735 1.72636 0
M  V30 1334 N 131.551 -0.354651 -1.53558 0
M  V30 1335 C 132.828 0.294281 -1.93374 0
M  V30 1336 C 133.208 1.67313 -1.28723 0
M  V30 1337 O 132.556 2.24179 -0.442247 0
M  V30 1338 C 132.766 0.355445 -3.47185 0
M  V30 1339 C 134.114 0.601007 -4.20325 0
M  V30 1340 O 135.138 0.437106 -3.53508 0
M  V30 1341 O 133.997 0.919322 -5.38712 0
M  V30 1342 H 131.091 0.174033 -0.808481 0
M  V30 1343 H 133.637 -0.406638 -1.64756 0
M  V30 1344 H 132.409 -0.611729 -3.86489 0
M  V30 1345 H 132.032 1.1027 -3.82003 0
M  V30 1346 N 133.029 1.57378 -0.0835403 0
M  V30 1347 C 134.44 1.81261 0.447358 0
M  V30 1348 C 134.791 0.998331 1.68902 0
M  V30 1349 O 133.916 0.224282 2.15235 0
M  V30 1350 C 134.511 3.28767 0.818386 0
M  V30 1351 C 133.07 3.53455 1.29409 0
M  V30 1352 C 132.217 2.75831 0.285024 0
M  V30 1353 H 135.168 1.5566 -0.309115 0
M  V30 1354 H 135.189 3.41459 1.67887 0
M  V30 1355 H 134.701 3.88006 -0.0855019 0
M  V30 1356 H 132.802 2.99534 2.21608 0
M  V30 1357 H 132.915 4.62128 1.2639 0
M  V30 1358 H 131.279 2.42947 0.764767 0
M  V30 1359 H 132.062 3.37813 -0.611341 0
M  V30 1360 N 134.507 -0.190092 1.56449 0
M  V30 1361 C 135.737 -0.92443 1.84764 0
M  V30 1362 C 136.145 -1.77146 0.664529 0
M  V30 1363 O 135.488 -1.79812 -0.375957 0
M  V30 1364 C 135.55 -1.86651 3.07248 0
M  V30 1365 C 135.214 -1.20094 4.40938 0
M  V30 1366 C 136.211 -0.575445 5.16706 0
M  V30 1367 C 133.896 -1.2033 4.87674 0
M  V30 1368 C 135.89 0.0388111 6.37388 0
M  V30 1369 C 133.577 -0.585214 6.08291 0
M  V30 1370 C 134.575 0.0347578 6.82991 0
M  V30 1371 O 134.263 0.643147 8.01323 0
M  V30 1372 H 133.995 -0.274974 0.617548 0
M  V30 1373 H 136.549 -0.200788 2.04416 0
M  V30 1374 H 134.779 -2.62998 2.83494 0
M  V30 1375 H 136.468 -2.46907 3.22167 0
M  V30 1376 H 137.234 -0.565728 4.81689 0
M  V30 1377 H 133.113 -1.67526 4.29484 0
M  V30 1378 H 136.657 0.523329 6.95634 0
M  V30 1379 H 132.554 -0.592451 6.42775 0
M  V30 1380 H 133.322 0.540545 8.16713 0
M  V30 1381 N 135.985 -1.50799 -0.457987 0
M  V30 1382 C 136.948 -1.7005 -1.53674 0
M  V30 1383 C 137.948 -0.570881 -1.50325 0
M  V30 1384 O 139.138 -0.838126 -1.52712 0
M  V30 1385 C 136.27 -1.73788 -2.93276 0
M  V30 1386 H 137.463 -2.66306 -1.37917 0
M  V30 1387 H 135.016 -1.40477 -0.685271 0
M  V30 1388 H 135.751 -0.792717 -3.14462 0
M  V30 1389 H 135.536 -2.55864 -2.97113 0
M  V30 1390 H 137.026 -1.90591 -3.71571 0
M  V30 1391 N 137.463 0.71206 -1.40597 0
M  V30 1392 C 138.879 1.02058 -1.22704 0
M  V30 1393 C 139.079 2.01228 -0.104729 0
M  V30 1394 O 138.135 2.4674 0.53624 0
M  V30 1395 C 139.448 1.56094 -2.57012 0
M  V30 1396 C 140.996 1.6806 -2.64054 0
M  V30 1397 C 141.471 2.25501 -3.9864 0
M  V30 1398 N 142.962 2.32882 -4.004 0
M  V30 1399 C 143.697 2.78317 -5.01325 0
M  V30 1400 N 143.193 3.23478 -6.12645 0
M  V30 1401 N 144.986 2.77733 -4.88693 0
M  V30 1402 H 137.137 0.0547896 -2.12329 0
M  V30 1403 H 139.4 0.0869027 -0.944008 0
M  V30 1404 H 139.106 0.906865 -3.39807 0
M  V30 1405 H 138.98 2.54564 -2.78347 0
M  V30 1406 H 141.367 2.32583 -1.81629 0
M  V30 1407 H 141.448 0.681802 -2.46546 0
M  V30 1408 H 141.092 1.61598 -4.81506 0
M  V30 1409 H 141.022 3.26102 -4.13479 0
M  V30 1410 H 143.513 2.00991 -3.20017 0
M  V30 1411 H 143.826 3.56725 -6.85542 0
M  V30 1412 H 142.171 3.21429 -6.16205 0
M  V30 1413 H 145.362 2.4179 -4.00818 0
M  V30 1414 H 145.535 3.12826 -5.67489 0
M  V30 1415 N 138.941 1.26152 0.944643 0
M  V30 1416 C 140.188 1.11492 1.69044 0
M  V30 1417 C 140.516 -0.342366 1.91463 0
M  V30 1418 O 139.771 -1.26812 1.49054 0
M  V30 1419 C 140.07 1.82541 3.07268 0
M  V30 1420 C 139.736 3.32445 3.04616 0
M  V30 1421 C 138.398 3.73337 3.036 0
M  V30 1422 C 140.75 4.28171 2.97185 0
M  V30 1423 C 138.078 5.08348 2.92915 0
M  V30 1424 C 140.43 5.63218 2.88041 0
M  V30 1425 C 139.094 6.03426 2.85366 0
M  V30 1426 H 138.364 0.407977 0.618576 0
M  V30 1427 H 141.011 1.56551 1.10291 0
M  V30 1428 H 139.316 1.29941 3.69625 0
M  V30 1429 H 141.013 1.68642 3.63815 0
M  V30 1430 H 137.603 2.99915 3.06185 0
M  V30 1431 H 141.787 3.97563 2.97081 0
M  V30 1432 H 137.043 5.38667 2.89219 0
M  V30 1433 H 141.217 6.37078 2.81254 0
M  V30 1434 H 138.844 7.07999 2.76842 0
M  V30 1435 N 140.419 -1.14872 1.07899 0
M  V30 1436 C 141.349 -2.2193 0.725887 0
M  V30 1437 C 142.33 -1.67622 -0.28927 0
M  V30 1438 O 143.515 -1.93533 -0.160787 0
M  V30 1439 C 140.645 -3.47061 0.128856 0
M  V30 1440 C 139.599 -4.14363 1.07178 0
M  V30 1441 C 138.925 -5.33636 0.337229 0
M  V30 1442 C 140.225 -4.63492 2.40775 0
M  V30 1443 H 141.919 -2.51724 1.62097 0
M  V30 1444 H 139.465 -1.20991 0.780838 0
M  V30 1445 H 141.418 -4.21199 -0.130147 0
M  V30 1446 H 140.142 -3.16617 -0.80134 0
M  V30 1447 H 138.801 -3.42173 1.3158 0
M  V30 1448 H 138.449 -4.99449 -0.596606 0
M  V30 1449 H 138.149 -5.79609 0.965788 0
M  V30 1450 H 139.673 -6.10539 0.0861567 0
M  V30 1451 H 141.087 -5.2913 2.20669 0
M  V30 1452 H 139.484 -5.20148 2.99276 0
M  V30 1453 H 140.554 -3.78834 3.02676 0
M  V30 1454 N 141.898 -0.863906 -1.31812 0
M  V30 1455 C 143.309 -0.52522 -1.7916 0
M  V30 1456 C 143.66 0.957518 -1.71248 0
M  V30 1457 O 142.785 1.74734 -1.27659 0
M  V30 1458 C 143.38 -0.9466 -3.25307 0
M  V30 1459 C 141.939 -0.659668 -3.70574 0
M  V30 1460 C 141.086 -1.14126 -2.52726 0
M  V30 1461 H 144.037 -1.05022 -1.1898 0
M  V30 1462 H 144.058 -0.266766 -3.79564 0
M  V30 1463 H 143.57 -2.02579 -3.31034 0
M  V30 1464 H 141.671 0.408416 -3.70355 0
M  V30 1465 H 141.784 -1.23245 -4.62977 0
M  V30 1466 H 140.148 -0.561216 -2.4844 0
M  V30 1467 H 140.931 -2.22775 -2.61201 0
M  V30 1468 N 143.376 1.44774 -0.622745 0
M  V30 1469 C 144.653 1.95522 -0.0551974 0
M  V30 1470 C 145.033 1.5649 1.41683 0
M  V30 1471 O 144.381 0.834848 2.12703 0
M  V30 1472 C 144.591 3.4796 -0.269242 0
M  V30 1473 C 145.939 4.24306 -0.158014 0
M  V30 1474 O 146.963 3.55637 -0.200162 0
M  V30 1475 O 145.822 5.46471 -0.0558693 0
M  V30 1476 H 142.916 0.826556 0.0271015 0
M  V30 1477 H 145.462 1.54866 -0.693864 0
M  V30 1478 H 144.234 3.6939 -1.29099 0
M  V30 1479 H 143.857 3.95543 0.403966 0
M  V30 1480 N 144.854 0.36279 1.53368 0
M  V30 1481 C 146.102 -0.227326 2.00817 0
M  V30 1482 C 146.423 -1.49511 1.25186 0
M  V30 1483 O 145.693 -1.92482 0.364348 0
M  V30 1484 H 144.273 -0.0869923 0.741917 0
M  V30 1485 H 146.935 0.488381 1.88682 0
M  V30 1486 H 146.031 -0.456273 3.08747 0
M  V30 1487 N 146.332 -1.57332 0.0918853 0
M  V30 1488 C 147.578 -1.94524 -0.573425 0
M  V30 1489 C 147.911 -0.973578 -1.68033 0
M  V30 1490 O 147.186 -0.00609226 -1.94499 0
M  V30 1491 C 147.469 -3.41858 -1.13161 0
M  V30 1492 C 147.322 -4.4979 -0.0299747 0
M  V30 1493 C 148.641 -3.90435 -2.03098 0
M  V30 1494 H 145.76 -0.70734 -0.206975 0
M  V30 1495 H 148.402 -1.89309 0.161942 0
M  V30 1496 H 146.552 -3.46433 -1.7583 0
M  V30 1497 H 148.224 -4.57327 0.604112 0
M  V30 1498 H 146.467 -4.291 0.636833 0
M  V30 1499 H 147.138 -5.50069 -0.461287 0
M  V30 1500 H 149.614 -3.87992 -1.50338 0
M  V30 1501 H 148.49 -4.94097 -2.39081 0
M  V30 1502 H 148.751 -3.29541 -2.94712 0
M  V30 1503 N 147.81 0.181792 -1.56548 0
M  V30 1504 C 148.76 1.22961 -1.92002 0
M  V30 1505 C 149.744 1.40331 -0.787146 0
M  V30 1506 O 150.936 1.42478 -1.05019 0
M  V30 1507 C 148.065 2.57144 -2.27446 0
M  V30 1508 C 147.151 2.43512 -3.47222 0
M  V30 1509 N 147.542 1.99577 -4.64761 0
M  V30 1510 C 145.84 2.74368 -3.51622 0
M  V30 1511 C 146.541 1.98156 -5.46909 0
M  V30 1512 N 145.517 2.40164 -4.8767 0
M  V30 1513 H 149.319 0.881462 -2.8037 0
M  V30 1514 H 146.833 0.390141 -1.57644 0
M  V30 1515 H 148.83 3.32847 -2.51035 0
M  V30 1516 H 147.49 2.92771 -1.40411 0
M  V30 1517 H 148.501 1.70078 -4.89177 0
M  V30 1518 H 145.178 3.14102 -2.75038 0
M  V30 1519 H 146.568 1.65975 -6.51077 0
M  V30 1520 N 149.288 1.51039 0.449983 0
M  V30 1521 C 150.536 1.62759 1.19808 0
M  V30 1522 C 150.857 0.339981 1.92013 0
M  V30 1523 O 150.127 -0.643606 1.85026 0
M  V30 1524 H 148.707 0.599811 0.445237 0
M  V30 1525 H 151.369 1.87914 0.517138 0
M  V30 1526 H 150.465 2.44911 1.93455 0
M  V30 1527 N 150.766 -0.704594 1.40972 0
M  V30 1528 C 151.676 -1.84856 1.44448 0
M  V30 1529 C 152.692 -1.70726 0.335961 0
M  V30 1530 O 153.868 -1.92799 0.582276 0
M  V30 1531 C 150.933 -3.20758 1.31587 0
M  V30 1532 C 149.994 -3.47063 2.52677 0
M  V30 1533 C 149.227 -4.76481 2.4042 0
M  V30 1534 O 149.45 -5.52341 1.42391 0
M  V30 1535 O 148.384 -5.03367 3.30007 0
M  V30 1536 H 152.21 -1.8488 2.40942 0
M  V30 1537 H 149.795 -0.85647 1.22413 0
M  V30 1538 H 151.677 -4.01913 1.26665 0
M  V30 1539 H 150.352 -3.21438 0.382049 0
M  V30 1540 H 149.259 -2.65873 2.63177 0
M  V30 1541 H 150.592 -3.5119 3.44858 0
M  V30 1542 N 152.244 -1.26651 -0.937939 0
M  V30 1543 C 153.207 -1.08546 -2.01867 0
M  V30 1544 C 154.207 -0.0327327 -1.60767 0
M  V30 1545 O 155.397 -0.276427 -1.71993 0
M  V30 1546 C 152.529 -0.651711 -3.34613 0
M  V30 1547 H 153.722 -2.04502 -2.1936 0
M  V30 1548 H 151.275 -1.09294 -1.11734 0
M  V30 1549 H 152.01 0.309696 -3.22818 0
M  V30 1550 H 151.795 -1.41189 -3.65798 0
M  V30 1551 H 153.285 -0.546973 -4.14002 0
M  V30 1552 N 153.722 1.14298 -1.08507 0
M  V30 1553 C 154.632 2.23027 -0.727753 0
M  V30 1554 C 155.648 1.71952 0.26619 0
M  V30 1555 O 156.824 2.011 0.109882 0
M  V30 1556 C 153.889 3.46403 -0.143541 0
M  V30 1557 C 152.95 4.12413 -1.19223 0
M  V30 1558 C 152.183 5.29899 -0.635798 0
M  V30 1559 O 152.406 5.67796 0.544393 0
M  V30 1560 O 151.34 5.85717 -1.38634 0
M  V30 1561 H 155.166 2.55945 -1.63481 0
M  V30 1562 H 152.751 1.22248 -0.858817 0
M  V30 1563 H 154.633 4.21018 0.179404 0
M  V30 1564 H 153.308 3.15206 0.736659 0
M  V30 1565 H 152.215 3.39667 -1.56772 0
M  V30 1566 H 153.548 4.47718 -2.04474 0
M  V30 1567 N 155.201 0.870884 1.31352 0
M  V30 1568 C 156.447 0.482987 1.96965 0
M  V30 1569 C 156.78 -0.962462 1.68672 0
M  V30 1570 O 156.055 -1.6779 0.98371 0
M  V30 1571 C 156.338 0.741752 3.52378 0
M  V30 1572 C 156.191 2.2368 3.9024 0
M  V30 1573 C 157.51 0.208838 4.39604 0
M  V30 1574 H 154.629 0.176955 0.715441 0
M  V30 1575 H 157.271 1.09229 1.55464 0
M  V30 1576 H 155.421 0.223149 3.87859 0
M  V30 1577 H 157.093 2.82273 3.64856 0
M  V30 1578 H 155.336 2.70901 3.38814 0
M  V30 1579 H 156.007 2.3685 4.98604 0
M  V30 1580 H 158.483 0.652529 4.10952 0
M  V30 1581 H 157.359 0.419336 5.47296 0
M  V30 1582 H 157.62 -0.889275 4.33064 0
M  V30 1583 N 156.679 -1.44442 0.630414 0
M  V30 1584 C 157.925 -2.02351 0.134816 0
M  V30 1585 C 158.258 -1.4947 -1.23986 0
M  V30 1586 O 157.533 -0.678475 -1.82283 0
M  V30 1587 C 157.816 -3.59898 0.120707 0
M  V30 1588 C 157.669 -4.23063 1.52767 0
M  V30 1589 C 158.988 -4.36585 -0.555127 0
M  V30 1590 H 156.107 -0.73527 0.0504646 0
M  V30 1591 H 158.749 -1.72022 0.806751 0
M  V30 1592 H 156.899 -3.85868 -0.451477 0
M  V30 1593 H 158.571 -4.08202 2.14869 0
M  V30 1594 H 156.814 -3.80586 2.08175 0
M  V30 1595 H 157.485 -5.32071 1.46984 0
M  V30 1596 H 159.961 -4.16044 -0.0685429 0
M  V30 1597 H 158.837 -5.46294 -0.534185 0
M  V30 1598 H 159.098 -4.11138 -1.62535 0
M  V30 1599 N 158.157 -0.370918 -1.53173 0
M  V30 1600 C 159.434 0.273754 -1.93675 0
M  V30 1601 C 159.814 1.65938 -1.3049 0
M  V30 1602 O 159.162 2.23698 -0.465999 0
M  V30 1603 C 159.372 0.318602 -3.47543 0
M  V30 1604 C 160.72 0.556392 -4.20939 0
M  V30 1605 O 161.744 0.399587 -3.53952 0
M  V30 1606 O 160.603 0.862133 -5.39657 0
M  V30 1607 H 157.697 0.165448 -0.810281 0
M  V30 1608 H 160.243 -0.42409 -1.64315 0
M  V30 1609 H 159.015 -0.652687 -3.85818 0
M  V30 1610 H 158.638 1.06212 -3.83151 0
M  V30 1611 N 159.635 1.57281 -0.100228 0
M  V30 1612 C 160.882 1.94537 0.562268 0
M  V30 1613 C 161.21 0.982315 1.67871 0
M  V30 1614 O 160.465 0.00280936 1.957 0
M  V30 1615 C 160.764 3.38305 1.15259 0
M  V30 1616 C 160.43 4.50618 0.159409 0
M  V30 1617 C 159.092 4.81066 -0.113741 0
M  V30 1618 C 161.444 5.18615 -0.518461 0
M  V30 1619 C 158.772 5.76835 -1.07137 0
M  V30 1620 C 161.124 6.15412 -1.46459 0
M  V30 1621 C 159.788 6.44262 -1.74592 0
M  V30 1622 H 159.058 0.711863 0.205748 0
M  V30 1623 H 161.705 1.90679 -0.17715 0
M  V30 1624 H 160.01 3.38766 1.96836 0
M  V30 1625 H 161.707 3.64435 1.67297 0
M  V30 1626 H 158.297 4.2689 0.382491 0
M  V30 1627 H 162.481 4.95264 -0.320581 0
M  V30 1628 H 157.737 5.975 -1.29628 0
M  V30 1629 H 161.911 6.67194 -1.99564 0
M  V30 1630 H 159.538 7.1828 -2.48953 0
M  V30 1631 N 161.113 -0.173488 1.56642 0
M  V30 1632 C 162.361 -0.888706 1.81512 0
M  V30 1633 C 162.682 -1.82875 0.676872 0
M  V30 1634 O 161.952 -1.93536 -0.303414 0
M  V30 1635 H 160.532 -0.331164 0.669582 0
M  V30 1636 H 163.194 -0.173823 1.94123 0
M  V30 1637 H 162.29 -1.46691 2.75478 0
M  V30 1638 N 162.591 -1.51276 -0.441967 0
M  V30 1639 C 163.819 -1.67516 -1.21434 0
M  V30 1640 C 164.234 -0.37055 -1.85128 0
M  V30 1641 O 163.591 0.650498 -1.70513 0
M  V30 1642 C 163.642 -2.78748 -2.30177 0
M  V30 1643 O 163.363 -4.04154 -1.69089 0
M  V30 1644 C 164.864 -3.06217 -3.20541 0
M  V30 1645 H 162.084 -0.562276 -0.366178 0
M  V30 1646 H 164.628 -1.97666 -0.524244 0
M  V30 1647 H 162.783 -2.5121 -2.94911 0
M  V30 1648 H 163.197 -4.65894 -2.40922 0
M  V30 1649 H 164.671 -3.8764 -3.92987 0
M  V30 1650 H 165.148 -2.18439 -3.81026 0
M  V30 1651 H 165.754 -3.35397 -2.61513 0
M  V30 1652 N 164.069 0.697108 -1.41344 0
M  V30 1653 C 165.316 1.45714 -1.40619 0
M  V30 1654 C 165.644 1.94494 -0.0147907 0
M  V30 1655 O 164.899 1.69794 0.973066 0
M  V30 1656 C 165.198 2.68553 -2.35826 0
M  V30 1657 C 164.864 2.38438 -3.82698 0
M  V30 1658 C 163.526 2.29936 -4.22709 0
M  V30 1659 C 165.878 2.13567 -4.75435 0
M  V30 1660 C 163.206 1.94656 -5.53467 0
M  V30 1661 C 165.558 1.79797 -6.06511 0
M  V30 1662 C 164.222 1.69789 -6.45545 0
M  V30 1663 H 163.492 0.533206 -0.51456 0
M  V30 1664 H 166.139 0.796901 -1.74131 0
M  V30 1665 H 164.444 3.39503 -1.95563 0
M  V30 1666 H 166.141 3.2669 -2.32539 0
M  V30 1667 H 162.731 2.4595 -3.51008 0
M  V30 1668 H 166.915 2.19082 -4.45328 0
M  V30 1669 H 162.171 1.8546 -5.82593 0
M  V30 1670 H 166.345 1.59572 -6.77872 0
M  V30 1671 H 163.972 1.4222 -7.46778 0
M  V30 1672 N 165.547 1.27147 0.931209 0
M  V30 1673 C 166.824 1.0401 1.65654 0
M  V30 1674 C 167.204 -0.426297 2.06751 0
M  V30 1675 O 166.552 -1.40879 1.79904 0
M  V30 1676 C 166.762 1.99834 2.86125 0
M  V30 1677 C 168.11 2.29007 3.57549 0
M  V30 1678 O 169.134 1.97779 2.96246 0
M  V30 1679 O 167.993 2.82222 4.67989 0
M  V30 1680 H 165.087 0.396239 0.725895 0
M  V30 1681 H 167.633 1.38397 0.982056 0
M  V30 1682 H 166.405 2.98744 2.52721 0
M  V30 1683 H 166.028 1.65987 3.61295 0
M  V30 1684 N 167.025 -1.13721 1.09112 0
M  V30 1685 C 168.271 -1.85413 0.836283 0
M  V30 1686 C 168.626 -1.8175 -0.631249 0
M  V30 1687 O 167.919 -1.24238 -1.45861 0
M  V30 1688 C 168.113 -3.32861 1.30146 0
M  V30 1689 C 167.942 -3.50882 2.81268 0
M  V30 1690 C 166.712 -3.65312 3.49106 0
M  V30 1691 C 168.91 -3.47196 3.7942 0
M  V30 1692 N 166.892 -3.71563 4.88686 0
M  V30 1693 C 168.263 -3.59777 5.04936 0
M  V30 1694 C 170.318 -3.30577 3.72321 0
M  V30 1695 C 169.021 -3.57455 6.24194 0
M  V30 1696 C 171.047 -3.29562 4.91063 0
M  V30 1697 C 170.409 -3.42691 6.15421 0
M  V30 1698 H 166.508 -0.694812 0.358832 0
M  V30 1699 H 169.092 -1.36246 1.39087 0
M  V30 1700 H 167.263 -3.80602 0.774361 0
M  V30 1701 H 168.995 -3.92346 0.99229 0
M  V30 1702 H 165.75 -3.6685 2.9953 0
M  V30 1703 H 166.174 -3.78387 5.61384 0
M  V30 1704 H 170.816 -3.19332 2.77105 0
M  V30 1705 H 168.534 -3.67475 7.19714 0
M  V30 1706 H 172.12 -3.17905 4.87266 0
M  V30 1707 H 171 -3.41862 7.05762 0
M  V30 1708 N 168.503 -0.877838 -1.30888 0
M  V30 1709 C 169.731 -0.507414 -2.00581 0
M  V30 1710 C 170.146 0.902216 -1.65848 0
M  V30 1711 O 169.503 1.59225 -0.891831 0
M  V30 1712 C 169.554 -0.664162 -3.55347 0
M  V30 1713 O 169.275 -2.01829 -3.8884 0
M  V30 1714 C 170.776 -0.295787 -4.42312 0
M  V30 1715 H 167.996 -0.196866 -0.641471 0
M  V30 1716 H 170.54 -1.18117 -1.66939 0
M  V30 1717 H 168.695 -0.0378619 -3.87381 0
M  V30 1718 H 169.109 -2.03174 -4.8355 0
M  V30 1719 H 170.583 -0.456388 -5.5011 0
M  V30 1720 H 171.06 0.765663 -4.32475 0
M  V30 1721 H 171.666 -0.898113 -4.15709 0
M  V30 1722 N 169.982 1.44106 -0.638065 0
M  V30 1723 C 171.259 1.95453 -0.0759321 0
M  V30 1724 C 171.639 1.57984 1.40015 0
M  V30 1725 O 170.987 0.857361 2.11806 0
M  V30 1726 C 171.197 3.47655 -0.306132 0
M  V30 1727 C 172.545 4.24114 -0.203008 0
M  V30 1728 O 173.569 3.55405 -0.237871 0
M  V30 1729 O 172.428 5.46381 -0.113827 0
M  V30 1730 H 169.522 0.826797 0.0183332 0
M  V30 1731 H 172.068 1.54122 -0.710251 0
M  V30 1732 H 170.84 3.68 -1.3301 0
M  V30 1733 H 170.463 3.95949 0.361991 0
M  V30 1734 N 171.46 0.379036 1.52974 0
M  V30 1735 C 172.423 -0.448865 2.24762 0
M  V30 1736 C 173.423 -0.998689 1.26027 0
M  V30 1737 O 174.613 -0.882313 1.50203 0
M  V30 1738 C 171.745 -1.62872 2.99476 0
M  V30 1739 H 172.938 0.179491 2.99362 0
M  V30 1740 H 170.491 0.13096 1.5575 0
M  V30 1741 H 171.226 -2.29479 2.29151 0
M  V30 1742 H 171.011 -1.24128 3.71934 0
M  V30 1743 H 172.501 -2.2151 3.5401 0
M  V30 1744 N 172.938 -1.57226 0.108567 0
M  V30 1745 C 174.215 -1.86333 -0.594939 0
M  V30 1746 C 174.595 -1.00788 -1.85486 0
M  V30 1747 O 173.943 -0.0839293 -2.28346 0
M  V30 1748 C 174.153 -3.37265 -0.897405 0
M  V30 1749 C 175.501 -4.05629 -1.25501 0
M  V30 1750 O 176.525 -3.42224 -0.987998 0
M  V30 1751 O 175.384 -5.17531 -1.75567 0
M  V30 1752 H 172.478 -0.771018 -0.2991 0
M  V30 1753 H 175.024 -1.69102 0.142283 0
M  V30 1754 H 173.796 -3.913 -0.00413806 0
M  V30 1755 H 173.419 -3.59889 -1.69014 0
M  V30 1756 N 174.416 0.165178 -1.56732 0
M  V30 1757 C 175.662 0.877389 -1.83503 0
M  V30 1758 C 176.017 1.79602 -0.689996 0
M  V30 1759 O 175.31 1.89023 0.313205 0
M  V30 1760 C 175.504 1.70405 -3.1416 0
M  V30 1761 C 175.333 0.866961 -4.41264 0
M  V30 1762 C 174.103 0.539646 -5.0241 0
M  V30 1763 C 176.301 0.205671 -5.13889 0
M  V30 1764 N 174.283 -0.312946 -6.13102 0
M  V30 1765 C 175.654 -0.507823 -6.17917 0
M  V30 1766 C 177.709 0.124468 -4.97744 0
M  V30 1767 C 176.412 -1.29483 -7.0755 0
M  V30 1768 C 178.438 -0.649222 -5.87826 0
M  V30 1769 C 177.8 -1.35106 -6.91322 0
M  V30 1770 H 173.899 0.299477 -0.722383 0
M  V30 1771 H 176.483 0.143949 -1.94167 0
M  V30 1772 H 174.654 2.40887 -3.04677 0
M  V30 1773 H 176.386 2.35804 -3.28905 0
M  V30 1774 H 173.141 0.871176 -4.65519 0
M  V30 1775 H 173.565 -0.729731 -6.73056 0
M  V30 1776 H 178.207 0.652724 -4.17731 0
M  V30 1777 H 175.925 -1.83441 -7.87004 0
M  V30 1778 H 179.511 -0.713804 -5.77405 0
M  V30 1779 H 178.391 -1.94013 -7.59821 0
M  V30 1780 N 175.894 1.51508 0.433938 0
M  V30 1781 C 176.844 1.69451 1.52546 0
M  V30 1782 C 177.828 0.548474 1.51263 0
M  V30 1783 O 179.02 0.804529 1.57659 0
M  V30 1784 C 176.149 1.82604 2.90707 0
M  V30 1785 C 175.235 3.03002 2.96733 0
M  V30 1786 N 175.626 4.26121 2.72496 0
M  V30 1787 C 173.924 3.02327 3.27894 0
M  V30 1788 C 174.625 5.07407 2.84452 0
M  V30 1789 N 173.601 4.42126 3.16269 0
M  V30 1790 H 177.403 2.62305 1.32564 0
M  V30 1791 H 174.917 1.49202 0.641297 0
M  V30 1792 H 176.914 1.93569 3.69238 0
M  V30 1793 H 175.574 0.909339 3.11707 0
M  V30 1794 H 176.585 4.55009 2.4736 0
M  V30 1795 H 173.262 2.20301 3.54646 0
M  V30 1796 H 174.652 6.15422 2.69639 0
M  V30 1797 N 177.372 -0.689602 1.41712 0
M  V30 1798 C 178.62 -1.4468 1.4111 0
M  V30 1799 C 178.941 -1.94986 0.0232196 0
M  V30 1800 O 178.211 -1.72097 -0.935913 0
M  V30 1801 H 176.791 -0.536847 0.519427 0
M  V30 1802 H 179.453 -0.815825 1.77004 0
M  V30 1803 H 178.549 -2.30706 2.10193 0
M  V30 1804 N 178.85 -1.27639 -0.924453 0
M  V30 1805 C 180.099 -1.13549 -1.66702 0
M  V30 1806 C 180.412 0.317487 -1.93006 0
M  V30 1807 O 181.618 0.579333 -2.65247 0
M  V30 1808 C 180.074 -1.98426 -3.00259 0
M  V30 1809 C 179.682 -3.484 -2.81641 0
M  V30 1810 C 181.426 -1.92993 -3.78092 0
M  V30 1811 C 179.333 -4.25464 -4.10773 0
M  V30 1812 H 178.263 -0.421351 -0.625283 0
M  V30 1813 H 180.914 -1.52085 -1.02676 0
M  V30 1814 H 179.296 -1.52736 -3.6536 0
M  V30 1815 H 180.47 -4.01973 -2.25287 0
M  V30 1816 H 178.785 -3.55245 -2.17232 0
M  V30 1817 H 181.382 -2.47844 -4.7379 0
M  V30 1818 H 181.725 -0.904281 -4.0636 0
M  V30 1819 H 182.258 -2.36595 -3.19793 0
M  V30 1820 H 178.997 -5.28566 -3.87683 0
M  V30 1821 H 178.517 -3.76667 -4.66779 0
M  V30 1822 H 180.196 -4.34812 -4.79111 0
M  V30 1823 N 180.328 1.1314 -1.09713 0
M  V30 1824 C 181.275 2.18642 -0.739196 0
M  V30 1825 C 182.245 1.63706 0.280978 0
M  V30 1826 O 183.43 1.90111 0.161946 0
M  V30 1827 C 180.57 3.44685 -0.169102 0
M  V30 1828 C 179.683 4.13711 -1.24367 0
M  V30 1829 C 178.818 5.27379 -0.636019 0
M  V30 1830 C 177.857 5.88259 -1.69169 0
M  V30 1831 N 176.994 6.93352 -1.10485 0
M  V30 1832 H 181.834 2.48607 -1.64312 0
M  V30 1833 H 179.371 1.22066 -0.820875 0
M  V30 1834 H 181.329 4.16815 0.179256 0
M  V30 1835 H 179.959 3.15161 0.698079 0
M  V30 1836 H 179.011 3.39835 -1.70927 0
M  V30 1837 H 180.323 4.55037 -2.04311 0
M  V30 1838 H 179.477 6.06238 -0.236677 0
M  V30 1839 H 178.216 4.8731 0.194928 0
M  V30 1840 H 177.221 5.08092 -2.10055 0
M  V30 1841 H 178.446 6.30399 -2.52536 0
M  V30 1842 H 176.392 6.55335 -0.295234 0
M  V30 1843 H 176.309 7.33236 -1.84121 0
M  V30 1844 H 177.577 7.76057 -0.73181 0
M  V30 1845 N 181.806 0.884767 1.30421 0
M  V30 1846 C 182.736 0.367574 2.30589 0
M  V30 1847 C 183.717 -0.549464 1.60981 0
M  V30 1848 O 184.902 -0.46336 1.88591 0
M  V30 1849 C 182.032 -0.418944 3.44764 0
M  V30 1850 C 180.986 0.406316 4.26067 0
M  V30 1851 C 180.312 -0.506793 5.32293 0
M  V30 1852 C 181.612 1.64832 4.95608 0
M  V30 1853 H 183.306 1.20462 2.74097 0
M  V30 1854 H 180.852 0.580695 1.31772 0
M  V30 1855 H 182.805 -0.791395 4.13902 0
M  V30 1856 H 181.529 -1.28964 3.0006 0
M  V30 1857 H 180.188 0.760903 3.58617 0
M  V30 1858 H 179.836 -1.37519 4.83836 0
M  V30 1859 H 179.536 0.0415828 5.87585 0
M  V30 1860 H 181.06 -0.875764 6.04287 0
M  V30 1861 H 182.474 1.34646 5.57264 0
M  V30 1862 H 180.871 2.13688 5.60765 0
M  V30 1863 H 181.941 2.39284 4.21748 0
M  V30 1864 N 183.284 -1.43765 0.645699 0
M  V30 1865 C 184.247 -2.29163 -0.0409488 0
M  V30 1866 C 185.247 -1.41813 -0.757996 0
M  V30 1867 O 186.437 -1.63527 -0.600382 0
M  V30 1868 C 183.569 -3.23716 -1.06869 0
M  V30 1869 H 184.762 -2.91366 0.710345 0
M  V30 1870 H 182.315 -1.5092 0.406547 0
M  V30 1871 H 183.05 -2.66393 -1.84947 0
M  V30 1872 H 182.835 -3.88105 -0.558277 0
M  V30 1873 H 184.325 -3.87831 -1.54845 0
M  V30 1874 N 184.763 -0.387143 -1.52771 0
M  V30 1875 C 186.04 0.253197 -1.93954 0
M  V30 1876 C 186.42 1.64545 -1.32243 0
M  V30 1877 O 185.768 2.23191 -0.489699 0
M  V30 1878 C 185.978 0.281722 -3.47861 0
M  V30 1879 C 187.326 0.511715 -4.21505 0
M  V30 1880 O 188.35 0.362023 -3.54356 0
M  V30 1881 O 187.209 0.804847 -5.40541 0
M  V30 1882 H 184.303 0.156845 -0.811991 0
M  V30 1883 H 186.849 -0.441494 -1.63856 0
M  V30 1884 H 185.621 -0.693571 -3.85104 0
M  V30 1885 H 185.244 1.02142 -3.84256 0
M  V30 1886 N 186.241 1.57166 -0.116904 0
M  V30 1887 C 187.481 1.97008 0.544715 0
M  V30 1888 C 187.845 0.998713 1.63981 0
M  V30 1889 O 189.046 1.28644 2.36018 0
M  V30 1890 C 187.317 3.41145 1.06559 0
M  V30 1891 S 188.876 4.02998 1.73603 0
M  V30 1892 H 185.694 0.688587 0.177112 0
M  V30 1893 H 188.296 1.94459 -0.201487 0
M  V30 1894 H 187 4.09592 0.257374 0
M  V30 1895 H 186.531 3.4734 1.84712 0
M  V30 1896 H 188.546 3.93585 3.02168 0
M  V30 1897 N 187.719 -0.156864 1.56817 0
M  V30 1898 C 188.965 -0.872416 1.83076 0
M  V30 1899 C 189.298 -1.81261 0.697001 0
M  V30 1900 O 188.573 -1.92171 -0.30008 0
M  V30 1901 C 188.856 -1.65551 3.19789 0
M  V30 1902 C 188.709 -0.737467 4.43713 0
M  V30 1903 C 190.028 -2.62012 3.53606 0
M  V30 1904 H 187.147 -0.315715 0.665953 0
M  V30 1905 H 189.789 -0.138004 1.89498 0
M  V30 1906 H 187.939 -2.28159 3.14445 0
M  V30 1907 H 189.611 -0.123143 4.61136 0
M  V30 1908 H 187.854 -0.0464067 4.33775 0
M  V30 1909 H 188.525 -1.32122 5.35955 0
M  V30 1910 H 191.001 -2.09525 3.59497 0
M  V30 1911 H 189.877 -3.13861 4.50314 0
M  V30 1912 H 190.138 -3.42902 2.79053 0
M  V30 1913 N 189.197 -1.51736 -0.425897 0
M  V30 1914 C 190.444 -1.6497 -1.17436 0
M  V30 1915 C 190.772 -0.371445 -1.9092 0
M  V30 1916 O 190.027 0.644963 -1.84767 0
M  V30 1917 C 190.326 -2.81103 -2.20717 0
M  V30 1918 C 189.992 -4.19954 -1.64162 0
M  V30 1919 C 188.654 -4.57725 -1.48462 0
M  V30 1920 C 191.006 -5.06552 -1.22696 0
M  V30 1921 C 188.334 -5.79789 -0.897873 0
M  V30 1922 C 190.686 -6.29205 -0.654464 0
M  V30 1923 C 189.35 -6.6574 -0.484456 0
M  V30 1924 H 188.62 -0.603668 -0.429727 0
M  V30 1925 H 191.267 -1.85798 -0.463829 0
M  V30 1926 H 189.572 -2.54542 -2.97852 0
M  V30 1927 H 191.269 -2.8854 -2.78471 0
M  V30 1928 H 187.859 -3.90181 -1.77361 0
M  V30 1929 H 192.043 -4.77968 -1.33642 0
M  V30 1930 H 187.299 -6.06733 -0.75402 0
M  V30 1931 H 191.473 -6.95643 -0.324694 0
M  V30 1932 H 189.1 -7.60195 -0.0276833 0
M  V30 1933 N 190.675 0.682077 -1.42076 0
M  V30 1934 C 191.905 1.46844 -1.45329 0
M  V30 1935 C 192.313 1.89102 -0.0609328 0
M  V30 1936 O 191.656 1.58238 0.933082 0
M  V30 1937 C 191.718 2.75375 -2.31104 0
M  V30 1938 C 191.382 2.55238 -3.79081 0
M  V30 1939 C 192.379 2.20309 -4.70914 0
M  V30 1940 C 190.064 2.70459 -4.2327 0
M  V30 1941 C 192.058 2.00859 -6.04925 0
M  V30 1942 C 189.745 2.50624 -5.57343 0
M  V30 1943 C 190.743 2.15876 -6.47986 0
M  V30 1944 O 190.431 1.96227 -7.79583 0
M  V30 1945 H 190.163 0.4586 -0.496651 0
M  V30 1946 H 192.717 0.846131 -1.87162 0
M  V30 1947 H 190.947 3.40061 -1.84107 0
M  V30 1948 H 192.636 3.37231 -2.25898 0
M  V30 1949 H 193.402 2.08153 -4.38061 0
M  V30 1950 H 189.281 2.96485 -3.53012 0
M  V30 1951 H 192.825 1.7366 -6.75639 0
M  V30 1952 H 188.722 2.62375 -5.89771 0
M  V30 1953 H 189.49 2.10883 -7.90867 0
M  V30 1954 N 192.153 1.28127 0.917671 0
M  V30 1955 C 193.063 1.13556 2.05286 0
M  V30 1956 C 194.079 0.0630914 1.73886 0
M  V30 1957 O 195.255 0.271598 1.9956 0
M  V30 1958 C 192.32 0.794676 3.3747 0
M  V30 1959 C 191.381 1.94909 3.82504 0
M  V30 1960 C 190.614 1.62437 5.0838 0
M  V30 1961 O 190.837 0.536905 5.67867 0
M  V30 1962 O 189.771 2.46677 5.4903 0
M  V30 1963 H 193.597 2.08844 2.20495 0
M  V30 1964 H 191.182 1.07409 1.03845 0
M  V30 1965 H 193.064 0.618344 4.16839 0
M  V30 1966 H 191.739 -0.128581 3.23445 0
M  V30 1967 H 190.646 2.18055 3.03978 0
M  V30 1968 H 191.979 2.85291 4.01086 0
M  V30 1969 N 193.631 -1.12557 1.10312 0
M  V30 1970 C 194.877 -1.84311 0.846011 0
M  V30 1971 C 195.21 -1.83805 -0.626859 0
M  V30 1972 O 194.485 -1.28268 -1.46211 0
M  V30 1973 C 194.768 -3.32048 1.39341 0
M  V30 1974 C 194.621 -3.41016 2.93305 0
M  V30 1975 C 195.94 -4.27764 1.03468 0
M  V30 1976 H 193.059 -0.669192 0.30879 0
M  V30 1977 H 195.701 -1.32057 1.36605 0
M  V30 1978 H 193.851 -3.76678 0.951087 0
M  V30 1979 H 195.523 -3.05031 3.46055 0
M  V30 1980 H 193.766 -2.81603 3.29973 0
M  V30 1981 H 194.437 -4.44948 3.26689 0
M  V30 1982 H 196.913 -3.91253 1.41633 0
M  V30 1983 H 195.789 -5.29549 1.44463 0
M  V30 1984 H 196.05 -4.42064 -0.0560404 0
M  V30 1985 N 195.109 -0.891671 -1.2995 0
M  V30 1986 C 196.059 -0.334811 -2.25528 0
M  V30 1987 C 197.043 0.540553 -1.51548 0
M  V30 1988 O 198.235 0.383882 -1.72787 0
M  V30 1989 C 195.364 0.44374 -3.4042 0
M  V30 1990 C 194.45 -0.44609 -4.21747 0
M  V30 1991 N 194.841 -1.54963 -4.81477 0
M  V30 1992 C 193.139 -0.242415 -4.45341 0
M  V30 1993 C 193.84 -2.10015 -5.42465 0
M  V30 1994 N 192.816 -1.39423 -5.25416 0
M  V30 1995 H 196.618 -1.17792 -2.69262 0
M  V30 1996 H 194.132 -0.741822 -1.44467 0
M  V30 1997 H 196.129 0.859362 -4.07947 0
M  V30 1998 H 194.789 1.28421 -2.98225 0
M  V30 1999 H 195.8 -1.93244 -4.80497 0
M  V30 2000 H 192.477 0.560342 -4.13723 0
M  V30 2001 H 193.867 -3.02724 -5.9984 0
M  V30 2002 N 196.587 1.43421 -0.653314 0
M  V30 2003 C 197.833 2.02111 -0.166992 0
M  V30 2004 C 198.166 1.51423 1.21592 0
M  V30 2005 O 197.441 0.707389 1.8118 0
M  V30 2006 C 197.724 3.5966 -0.177948 0
M  V30 2007 C 197.577 4.20579 -1.59478 0
M  V30 2008 C 198.896 4.37413 0.4856 0
M  V30 2009 H 196.015 0.734374 -0.0621557 0
M  V30 2010 H 198.657 1.70717 -0.834016 0
M  V30 2011 H 196.807 3.86537 0.390032 0
M  V30 2012 H 198.479 4.04732 -2.21336 0
M  V30 2013 H 196.722 3.77226 -2.14204 0
M  V30 2014 H 197.393 5.29665 -1.5543 0
M  V30 2015 H 199.869 4.161 0.00234528 0
M  V30 2016 H 198.745 5.47075 0.447207 0
M  V30 2017 H 199.006 4.13672 1.55974 0
M  V30 2018 N 198.065 0.39524 1.52563 0
M  V30 2019 C 199.313 -0.184678 2.01254 0
M  V30 2020 C 199.634 -1.46822 1.28329 0
M  V30 2021 O 198.904 -1.91666 0.405094 0
M  V30 2022 H 197.484 -0.0712355 0.743596 0
M  V30 2023 H 200.146 0.528293 1.87603 0
M  V30 2024 H 199.242 -0.390681 3.09645 0
M  V30 2025 N 199.544 -1.57102 0.125237 0
M  V30 2026 C 200.772 -1.99761 -0.538797 0
M  V30 2027 C 201.187 -1.00503 -1.59827 0
M  V30 2028 O 200.544 0.00119474 -1.825 0
M  V30 2029 C 200.595 -3.42408 -1.15927 0
M  V30 2030 O 200.316 -4.37869 -0.142143 0
M  V30 2031 C 201.817 -4.00232 -1.90602 0
M  V30 2032 H 199.037 -0.655772 -0.14214 0
M  V30 2033 H 201.581 -2.03383 0.213413 0
M  V30 2034 H 199.736 -3.39706 -1.86223 0
M  V30 2035 H 200.15 -5.21128 -0.593775 0
M  V30 2036 H 201.624 -5.02105 -2.29335 0
M  V30 2037 H 202.101 -3.39721 -2.78363 0
M  V30 2038 H 202.707 -4.06499 -1.25055 0
M  V30 2039 N 201.022 0.148545 -1.56898 0
M  V30 2040 C 202.269 0.861418 -1.83264 0
M  V30 2041 C 202.597 1.81239 -0.705883 0
M  V30 2042 O 201.852 1.93305 0.305212 0
M  V30 2043 C 202.151 1.67064 -3.1595 0
M  V30 2044 C 201.817 0.866591 -4.42494 0
M  V30 2045 C 200.479 0.644762 -4.76861 0
M  V30 2046 C 202.831 0.30418 -5.20312 0
M  V30 2047 C 200.159 -0.15021 -5.86508 0
M  V30 2048 C 202.511 -0.477824 -6.30793 0
M  V30 2049 C 201.175 -0.710244 -6.63711 0
M  V30 2050 H 200.445 0.315215 -0.670612 0
M  V30 2051 H 203.092 0.125142 -1.91091 0
M  V30 2052 H 201.397 2.47698 -3.03567 0
M  V30 2053 H 203.094 2.22566 -3.33565 0
M  V30 2054 H 199.684 1.04955 -4.15551 0
M  V30 2055 H 203.868 0.462844 -4.94137 0
M  V30 2056 H 199.124 -0.339796 -6.10455 0
M  V30 2057 H 203.298 -0.92076 -6.90286 0
M  V30 2058 H 200.925 -1.3281 -7.48509 0
M  V30 2059 N 202.5 1.5196 0.417844 0
M  V30 2060 C 203.728 1.69426 1.18753 0
M  V30 2061 C 204.143 0.399955 1.84515 0
M  V30 2062 O 203.5 -0.623288 1.71527 0
M  V30 2063 C 203.551 2.82375 2.25714 0
M  V30 2064 O 203.272 4.06793 1.62638 0
M  V30 2065 C 204.773 3.11277 3.15628 0
M  V30 2066 H 201.993 0.568031 0.357186 0
M  V30 2067 H 204.537 1.98475 0.49273 0
M  V30 2068 H 202.692 2.5587 2.90877 0
M  V30 2069 H 203.106 4.69667 2.3348 0
M  V30 2070 H 204.58 3.93843 3.86771 0
M  V30 2071 H 205.057 2.24473 3.77503 0
M  V30 2072 H 205.663 3.39515 2.56144 0
M  V30 2073 N 203.978 -0.674533 1.42435 0
M  V30 2074 C 205.389 -1.25514 1.38214 0
M  V30 2075 C 205.74 -1.96055 0.0755464 0
M  V30 2076 O 204.865 -2.00028 -0.8257 0
M  V30 2077 C 205.46 -2.28269 2.50357 0
M  V30 2078 C 204.019 -2.81856 2.49467 0
M  V30 2079 C 203.166 -1.56182 2.29134 0
M  V30 2080 H 206.117 -0.467902 1.51646 0
M  V30 2081 H 206.138 -3.10009 2.20624 0
M  V30 2082 H 205.65 -1.769 3.45439 0
M  V30 2083 H 203.751 -3.37346 1.58204 0
M  V30 2084 H 203.864 -3.30854 3.46515 0
M  V30 2085 H 202.228 -1.82761 1.774 0
M  V30 2086 H 203.011 -1.06778 3.26272 0
M  V30 2087 N 205.456 -1.28612 -0.910864 0
M  V30 2088 C 206.366 -1.14643 -2.0468 0
M  V30 2089 C 207.382 -0.0723121 -1.7385 0
M  V30 2090 O 208.558 -0.282178 -1.99413 0
M  V30 2091 C 205.623 -0.812561 -3.37044 0
M  V30 2092 C 204.684 -1.96935 -3.81465 0
M  V30 2093 C 203.917 -1.65131 -5.07511 0
M  V30 2094 O 204.14 -0.567013 -5.67575 0
M  V30 2095 O 203.074 -2.49585 -5.47714 0
M  V30 2096 H 206.9 -2.1001 -2.19384 0
M  V30 2097 H 204.485 -1.07958 -1.03274 0
M  V30 2098 H 206.367 -0.640441 -4.16505 0
M  V30 2099 H 205.042 0.111426 -3.23508 0
M  V30 2100 H 203.949 -2.19664 -3.02818 0
M  V30 2101 H 205.282 -2.87414 -3.99567 0
M  V30 2102 N 206.934 1.1197 -1.10907 0
M  V30 2103 C 208.182 1.83225 -0.852819 0
M  V30 2104 C 208.503 1.84769 0.623341 0
M  V30 2105 O 207.773 1.3143 1.45269 0
M  V30 2106 H 206.353 0.67849 -0.312507 0
M  V30 2107 H 209.015 1.3556 -1.40033 0
M  V30 2108 H 208.111 2.87265 -1.22005 0
M  V30 2109 N 208.412 0.89855 1.29475 0
M  V30 2110 C 209.64 0.539261 1.99749 0
M  V30 2111 C 210.055 -0.875716 1.67262 0
M  V30 2112 O 209.412 -1.57786 0.917049 0
M  V30 2113 C 209.463 0.72061 3.54245 0
M  V30 2114 O 209.184 2.07989 3.8558 0
M  V30 2115 C 210.685 0.366118 4.41786 0
M  V30 2116 H 207.905 0.207047 0.638258 0
M  V30 2117 H 210.449 1.20758 1.65039 0
M  V30 2118 H 208.604 0.0994862 3.87272 0
M  V30 2119 H 209.018 2.10841 4.80257 0
M  V30 2120 H 210.492 0.543848 5.49314 0
M  V30 2121 H 210.969 -0.696763 4.33638 0
M  V30 2122 H 211.575 0.964135 4.14228 0
M  V30 2123 N 209.89 -1.43072 0.660911 0
M  V30 2124 C 211.12 -2.05769 0.185153 0
M  V30 2125 C 211.528 -1.49668 -1.15742 0
M  V30 2126 O 210.871 -0.625649 -1.72717 0
M  V30 2127 C 210.933 -3.59489 0.0278237 0
M  V30 2128 C 210.597 -4.38212 1.2969 0
M  V30 2129 C 211.594 -4.69772 2.22734 0
M  V30 2130 C 209.279 -4.7809 1.54063 0
M  V30 2131 C 211.273 -5.40129 3.38437 0
M  V30 2132 C 208.96 -5.4819 2.70058 0
M  V30 2133 C 209.958 -5.79132 3.62071 0
M  V30 2134 O 209.646 -6.47798 4.76039 0
M  V30 2135 H 209.378 -0.669873 0.0908086 0
M  V30 2136 H 211.932 -1.84436 0.90402 0
M  V30 2137 H 210.162 -3.79426 -0.746489 0
M  V30 2138 H 211.851 -4.03862 -0.406275 0
M  V30 2139 H 212.617 -4.39476 2.05149 0
M  V30 2140 H 208.496 -4.53408 0.833215 0
M  V30 2141 H 212.04 -5.64198 4.10277 0
M  V30 2142 H 207.937 -5.77902 2.87574 0
M  V30 2143 H 208.705 -6.66283 4.75404 0
M  V30 2144 N 211.368 -0.403325 -1.52352 0
M  V30 2145 C 212.784 -0.0539281 -1.59509 0
M  V30 2146 C 212.984 1.43307 -1.41652 0
M  V30 2147 O 212.04 2.19924 -1.24056 0
M  V30 2148 C 213.353 -0.543654 -2.95745 0
M  V30 2149 C 214.901 -0.501125 -3.08962 0
M  V30 2150 C 215.376 -0.967267 -4.47669 0
M  V30 2151 N 216.867 -0.923849 -4.53893 0
M  V30 2152 C 217.602 -1.25578 -5.5948 0
M  V30 2153 N 217.098 -1.65889 -6.72646 0
M  V30 2154 N 218.891 -1.17613 -5.49658 0
M  V30 2155 H 211.042 -1.37123 -1.62206 0
M  V30 2156 H 213.305 -0.56294 -0.76276 0
M  V30 2157 H 213.011 -1.58275 -3.14073 0
M  V30 2158 H 212.885 0.0498042 -3.77167 0
M  V30 2159 H 215.272 0.528909 -2.90321 0
M  V30 2160 H 215.353 -1.13056 -2.2946 0
M  V30 2161 H 214.997 -1.9956 -4.67053 0
M  V30 2162 H 214.927 -0.314698 -5.25659 0
M  V30 2163 H 217.418 -0.627403 -3.72655 0
M  V30 2164 H 217.731 -1.89543 -7.49195 0
M  V30 2165 H 216.076 -1.69787 -6.73942 0
M  V30 2166 H 219.267 -0.860115 -4.6013 0
M  V30 2167 H 219.44 -1.43812 -6.3184 0
M  V30 2168 N 212.846 1.57033 -0.133567 0
M  V30 2169 C 213.809 2.14897 0.796995 0
M  V30 2170 C 214.809 1.0874 1.18458 0
M  V30 2171 O 215.999 1.34446 1.1077 0
M  V30 2172 C 213.131 2.70112 2.07973 0
M  V30 2173 H 214.324 2.98457 0.293873 0
M  V30 2174 H 211.877 1.55871 0.115787 0
M  V30 2175 H 212.612 1.9018 2.62682 0
M  V30 2176 H 212.397 3.47764 1.81115 0
M  V30 2177 H 213.887 3.14738 2.74462 0
M  V30 2178 N 214.325 -0.140222 1.56975 0
M  V30 2179 C 215.288 -1.15689 1.97861 0
M  V30 2180 C 216.288 -1.3549 0.865974 0
M  V30 2181 O 217.478 -1.32367 1.13246 0
M  V30 2182 C 214.61 -2.51582 2.30042 0
M  V30 2183 H 215.803 -0.805971 2.88867 0
M  V30 2184 H 213.356 -0.383801 1.51515 0
M  V30 2185 H 214.091 -2.91632 1.41849 0
M  V30 2186 H 213.876 -2.38569 3.11171 0
M  V30 2187 H 215.366 -3.24792 2.62488 0
M  V30 2188 N 215.803 -1.52179 -0.40978 0
M  V30 2189 C 216.766 -1.74853 -1.48186 0
M  V30 2190 C 217.766 -0.618417 -1.48433 0
M  V30 2191 O 218.956 -0.886286 -1.49969 0
M  V30 2192 C 216.088 -1.8303 -2.87598 0
M  V30 2193 H 217.281 -2.70559 -1.29374 0
M  V30 2194 H 214.834 -1.42586 -0.640233 0
M  V30 2195 H 215.569 -0.89236 -3.11781 0
M  V30 2196 H 215.354 -2.65187 -2.88822 0
M  V30 2197 H 216.844 -2.02316 -3.65319 0
M  V30 2198 N 217.281 0.66697 -1.42791 0
M  V30 2199 C 218.191 1.80962 -1.49299 0
M  V30 2200 C 219.207 1.69775 -0.381108 0
M  V30 2201 O 220.383 1.91188 -0.633188 0
M  V30 2202 C 217.448 3.17156 -1.40045 0
M  V30 2203 C 216.509 3.40242 -2.6179 0
M  V30 2204 C 215.742 4.69939 -2.52969 0
M  V30 2205 O 215.965 5.48372 -1.56985 0
M  V30 2206 O 214.899 4.94441 -3.43237 0
M  V30 2207 H 218.725 1.78427 -2.45759 0
M  V30 2208 H 216.31 0.823713 -1.24641 0
M  V30 2209 H 218.192 3.98413 -1.37276 0
M  V30 2210 H 216.867 3.20312 -0.467138 0
M  V30 2211 H 215.774 2.58802 -2.70134 0
M  V30 2212 H 217.107 3.41923 -3.54047 0
M  V30 2213 N 218.759 1.29093 0.90403 0
M  V30 2214 C 219.706 1.13853 2.00764 0
M  V30 2215 C 220.676 0.0330084 1.66067 0
M  V30 2216 O 221.861 0.199733 1.89752 0
M  V30 2217 C 219.001 0.816537 3.35301 0
M  V30 2218 C 218.114 2.00206 3.82807 0
M  V30 2219 C 217.249 1.61983 5.059 0
M  V30 2220 C 216.288 2.77143 5.45764 0
M  V30 2221 N 215.425 2.39346 6.60044 0
M  V30 2222 H 220.265 2.08276 2.13132 0
M  V30 2223 H 217.802 1.03648 1.04381 0
M  V30 2224 H 219.76 0.610557 4.12708 0
M  V30 2225 H 218.39 -0.090779 3.22672 0
M  V30 2226 H 217.442 2.31988 3.01473 0
M  V30 2227 H 218.754 2.86512 4.08304 0
M  V30 2228 H 217.908 1.37649 5.90879 0
M  V30 2229 H 216.647 0.728202 4.82233 0
M  V30 2230 H 215.652 3.02165 4.59322 0
M  V30 2231 H 216.877 3.66964 5.71414 0
M  V30 2232 H 214.823 1.52665 6.37989 0
M  V30 2233 H 214.74 3.19185 6.85315 0
M  V30 2234 H 216.008 2.1832 7.48303 0
M  V30 2235 N 220.237 -1.11381 1.11499 0
M  V30 2236 C 221.167 -2.19509 0.796125 0
M  V30 2237 C 222.148 -1.68458 -0.235796 0
M  V30 2238 O 223.333 -1.93947 -0.0991344 0
M  V30 2239 C 220.463 -3.46475 0.239205 0
M  V30 2240 C 219.417 -4.10744 1.20307 0
M  V30 2241 C 218.743 -5.32293 0.50683 0
M  V30 2242 C 220.043 -4.55597 2.55399 0
M  V30 2243 H 221.737 -2.46439 1.70024 0
M  V30 2244 H 219.283 -1.18446 0.818935 0
M  V30 2245 H 221.236 -4.214 0.00392006 0
M  V30 2246 H 219.96 -3.19006 -0.700206 0
M  V30 2247 H 218.619 -3.37813 1.42399 0
M  V30 2248 H 218.267 -5.01095 -0.437408 0
M  V30 2249 H 217.967 -5.76243 1.1497 0
M  V30 2250 H 219.491 -6.09956 0.280351 0
M  V30 2251 H 220.905 -5.21841 2.37391 0
M  V30 2252 H 219.302 -5.10363 3.15673 0
M  V30 2253 H 220.372 -3.69013 3.14575 0
M  V30 2254 N 221.715 -0.905404 -1.28997 0
M  V30 2255 C 223.126 -0.581953 -1.77398 0
M  V30 2256 C 223.477 0.902552 -1.74208 0
M  V30 2257 O 222.602 1.70584 -1.33154 0
M  V30 2258 C 223.197 -1.04961 -3.22131 0
M  V30 2259 C 221.756 -0.777229 -3.68288 0
M  V30 2260 C 220.903 -1.22109 -2.48967 0
M  V30 2261 H 223.854 -1.08754 -1.15578 0
M  V30 2262 H 223.875 -0.387387 -3.78523 0
M  V30 2263 H 223.387 -2.13008 -3.24421 0
M  V30 2264 H 221.488 0.290383 -3.71467 0
M  V30 2265 H 221.601 -1.37911 -4.58822 0
M  V30 2266 H 219.965 -0.639971 -2.46529 0
M  V30 2267 H 220.748 -2.30972 -2.53982 0
M  V30 2268 N 223.193 1.4272 -0.668489 0
M  V30 2269 C 224.423 2.05668 -0.196063 0
M  V30 2270 C 224.831 1.5028 1.14946 0
M  V30 2271 O 224.174 0.6348 1.72383 0
M  V30 2272 C 224.236 3.59469 -0.0468879 0
M  V30 2273 C 223.9 4.37518 -1.32012 0
M  V30 2274 C 224.897 4.68584 -2.25222 0
M  V30 2275 C 222.582 4.77266 -1.56596 0
M  V30 2276 C 224.576 5.38326 -3.41297 0
M  V30 2277 C 222.263 5.4675 -2.72962 0
M  V30 2278 C 223.261 5.77204 -3.65137 0
M  V30 2279 O 222.949 6.45264 -4.79468 0
M  V30 2280 H 222.681 0.669382 -0.0943599 0
M  V30 2281 H 225.235 1.83954 -0.913788 0
M  V30 2282 H 223.465 3.79817 0.726357 0
M  V30 2283 H 225.154 4.04071 0.384852 0
M  V30 2284 H 225.92 4.38382 -2.07477 0
M  V30 2285 H 221.799 4.52959 -0.857249 0
M  V30 2286 H 225.343 5.62014 -4.13263 0
M  V30 2287 H 221.24 5.76369 -2.90635 0
M  V30 2288 H 222.008 6.63753 -4.78931 0
M  V30 2289 N 224.671 0.411399 1.52136 0
M  V30 2290 C 225.601 -0.404015 2.29978 0
M  V30 2291 C 226.582 -1.04412 1.34284 0
M  V30 2292 O 227.767 -1.0527 1.63192 0
M  V30 2293 C 224.897 -1.5197 3.12286 0
M  V30 2294 C 223.851 -1.00448 4.16046 0
M  V30 2295 C 223.177 -2.21393 4.86712 0
M  V30 2296 C 224.477 -0.0569336 5.22269 0
M  V30 2297 H 226.171 0.245529 2.98392 0
M  V30 2298 H 223.717 0.119525 1.43503 0
M  V30 2299 H 225.67 -2.09715 3.6551 0
M  V30 2300 H 224.394 -2.19716 2.41646 0
M  V30 2301 H 223.053 -0.449421 3.63835 0
M  V30 2302 H 222.701 -2.87699 4.12599 0
M  V30 2303 H 222.401 -1.87571 5.56858 0
M  V30 2304 H 223.925 -2.7974 5.4275 0
M  V30 2305 H 225.339 -0.54325 5.7072 0
M  V30 2306 H 223.736 0.192594 5.99791 0
M  V30 2307 H 224.806 0.887663 4.76706 0
M  V30 2308 N 226.149 -1.5696 0.141893 0
M  V30 2309 C 227.096 -2.16501 -0.799737 0
M  V30 2310 C 228.066 -1.09643 -1.24771 0
M  V30 2311 O 229.251 -1.3766 -1.32115 0
M  V30 2312 C 226.391 -2.78679 -2.03549 0
M  V30 2313 C 225.504 -3.99914 -1.6338 0
M  V30 2314 C 224.639 -4.50106 -2.82096 0
M  V30 2315 C 223.678 -5.63819 -2.38275 0
M  V30 2316 N 222.815 -6.08651 -3.49983 0
M  V30 2317 H 227.655 -2.96632 -0.285179 0
M  V30 2318 H 225.192 -1.46533 -0.129053 0
M  V30 2319 H 227.15 -3.1287 -2.75986 0
M  V30 2320 H 225.78 -2.012 -2.52425 0
M  V30 2321 H 224.832 -3.71735 -0.807279 0
M  V30 2322 H 226.144 -4.82311 -1.27192 0
M  V30 2323 H 225.298 -4.86325 -3.62729 0
M  V30 2324 H 224.037 -3.66706 -3.21525 0
M  V30 2325 H 223.042 -5.2718 -1.56081 0
M  V30 2326 H 224.267 -6.49 -1.99938 0
M  V30 2327 H 222.213 -5.28188 -3.89042 0
M  V30 2328 H 222.13 -6.85961 -3.17794 0
M  V30 2329 H 223.398 -6.49515 -4.30988 0
M  V30 2330 N 227.627 0.131896 -1.57047 0
M  V30 2331 C 228.537 1.1815 -2.02676 0
M  V30 2332 C 229.553 1.46113 -0.944824 0
M  V30 2333 O 230.729 1.57485 -1.25541 0
M  V30 2334 C 227.794 2.49139 -2.41103 0
M  V30 2335 C 226.855 2.28688 -3.63318 0
M  V30 2336 C 226.088 3.53431 -3.99903 0
M  V30 2337 O 226.311 4.60223 -3.36973 0
M  V30 2338 O 225.245 3.45198 -4.93074 0
M  V30 2339 H 229.071 0.824069 -2.92306 0
M  V30 2340 H 226.656 0.341745 -1.45439 0
M  V30 2341 H 228.538 3.26338 -2.66611 0
M  V30 2342 H 227.213 2.84382 -1.54624 0
M  V30 2343 H 226.12 1.4939 -3.42977 0
M  V30 2344 H 227.453 1.98355 -4.50462 0
M  V30 2345 N 229.106 1.52395 0.401703 0
M  V30 2346 C 230.036 1.79231 1.49661 0
M  V30 2347 C 231.017 0.643654 1.57452 0
M  V30 2348 O 232.202 0.889989 1.72606 0
M  V30 2349 C 229.332 1.94971 2.87409 0
M  V30 2350 C 228.286 3.10604 2.94465 0
M  V30 2351 C 227.612 3.11577 4.34538 0
M  V30 2352 C 228.912 4.49921 2.6527 0
M  V30 2353 H 230.606 2.70917 1.27454 0
M  V30 2354 H 228.152 1.30362 0.6117 0
M  V30 2355 H 230.105 2.12328 3.63999 0
M  V30 2356 H 228.829 0.999632 3.10926 0
M  V30 2357 H 227.488 2.93009 2.20321 0
M  V30 2358 H 227.136 2.14277 4.55076 0
M  V30 2359 H 226.836 3.89247 4.40183 0
M  V30 2360 H 228.36 3.31073 5.13053 0
M  V30 2361 H 229.774 4.67683 3.31581 0
M  V30 2362 H 228.171 5.29564 2.82281 0
M  V30 2363 H 229.241 4.57507 1.60671 0
M  V30 2364 N 230.584 -0.659388 1.43143 0
M  V30 2365 C 231.832 -1.41654 1.44147 0
M  V30 2366 C 232.153 -1.94893 0.0645739 0
M  V30 2367 O 231.423 -1.74044 -0.899198 0
M  V30 2368 H 230.003 -0.525708 0.530697 0
M  V30 2369 H 232.665 -0.778097 1.78694 0
M  V30 2370 H 231.761 -2.26195 2.1504 0
M  V30 2371 N 232.062 -1.29571 -0.897171 0
M  V30 2372 C 233.308 -1.17863 -1.65034 0
M  V30 2373 C 233.641 0.268729 -1.92332 0
M  V30 2374 O 232.916 1.19378 -1.53555 0
M  V30 2375 C 233.199 -1.995 -2.99786 0
M  V30 2376 C 233.052 -3.5239 -2.79538 0
M  V30 2377 C 234.371 -1.82335 -4.00552 0
M  V30 2378 H 231.49 -0.429528 -0.598895 0
M  V30 2379 H 234.132 -1.59072 -1.03905 0
M  V30 2380 H 232.282 -1.64485 -3.51962 0
M  V30 2381 H 233.954 -3.97401 -2.34244 0
M  V30 2382 H 232.197 -3.77187 -2.14273 0
M  V30 2383 H 232.868 -4.04787 -3.75302 0
M  V30 2384 H 235.344 -2.12924 -3.57495 0
M  V30 2385 H 234.22 -2.41801 -4.92771 0
M  V30 2386 H 234.481 -0.779209 -4.35179 0
M  V30 2387 N 233.54 1.10788 -1.12088 0
M  V30 2388 C 234.768 1.86461 -0.896651 0
M  V30 2389 C 235.183 1.80492 0.553912 0
M  V30 2390 O 234.54 1.19102 1.38278 0
M  V30 2391 C 234.591 3.35006 -1.35843 0
M  V30 2392 O 234.312 3.40866 -2.75213 0
M  V30 2393 C 235.813 4.27565 -1.1706 0
M  V30 2394 H 233.033 0.589425 -0.320654 0
M  V30 2395 H 235.577 1.40076 -1.48993 0
M  V30 2396 H 233.732 3.7887 -0.808458 0
M  V30 2397 H 234.146 4.33411 -2.9539 0
M  V30 2398 H 235.62 5.30007 -1.54263 0
M  V30 2399 H 236.097 4.3906 -0.110814 0
M  V30 2400 H 236.703 3.89501 -1.70789 0
M  V30 2401 N 235.018 0.912232 1.28515 0
M  V30 2402 C 235.981 0.404223 2.25607 0
M  V30 2403 C 236.981 -0.468602 1.53821 0
M  V30 2404 O 238.171 -0.271873 1.72065 0
M  V30 2405 C 235.303 -0.420653 3.38295 0
M  V30 2406 H 236.496 1.26188 2.7206 0
M  V30 2407 H 234.049 0.691495 1.40171 0
M  V30 2408 H 234.784 -1.29777 2.97201 0
M  V30 2409 H 234.569 0.204935 3.91564 0
M  V30 2410 H 236.059 -0.766971 4.10496 0
M  V30 2411 N 236.496 -1.42363 0.676048 0
M  V30 2412 C 237.745 -2.00745 0.196037 0
M  V30 2413 C 238.058 -1.54083 -1.20489 0
M  V30 2414 O 239.264 -2.04891 -1.78134 0
M  V30 2415 C 237.72 -3.58651 0.299616 0
M  V30 2416 C 237.328 -4.143 1.70468 0
M  V30 2417 C 239.072 -4.24326 -0.121619 0
M  V30 2418 C 236.979 -5.64574 1.76096 0
M  V30 2419 H 235.909 -0.750787 0.0695301 0
M  V30 2420 H 238.56 -1.63072 0.841412 0
M  V30 2421 H 236.942 -3.93833 -0.413673 0
M  V30 2422 H 238.116 -3.90575 2.44515 0
M  V30 2423 H 236.431 -3.61081 2.07387 0
M  V30 2424 H 239.028 -5.34607 -0.0997362 0
M  V30 2425 H 239.371 -3.99897 -1.15708 0
M  V30 2426 H 239.904 -3.94108 0.540706 0
M  V30 2427 H 236.643 -5.93804 2.77628 0
M  V30 2428 H 236.163 -5.90286 1.06406 0
M  V30 2429 H 237.842 -6.29013 1.51496 0
M  V30 2430 N 237.974 -0.419461 -1.51915 0
M  V30 2431 C 238.906 0.43646 -2.25006 0
M  V30 2432 C 239.919 1.00149 -1.28351 0
M  V30 2433 O 241.108 0.898674 -1.54227 0
M  V30 2434 C 238.208 1.6206 -2.9764 0
M  V30 2435 C 237.381 1.17763 -4.21249 0
M  V30 2436 C 236.44 2.22985 -4.76617 0
M  V30 2437 O 235.466 1.83151 -5.38929 0
M  V30 2438 N 236.668 3.55271 -4.59089 0
M  V30 2439 H 239.433 -0.18989 -2.99098 0
M  V30 2440 H 236.994 -0.247386 -1.59999 0
M  V30 2441 H 238.986 2.32038 -3.31573 0
M  V30 2442 H 237.556 2.15266 -2.2667 0
M  V30 2443 H 236.776 0.305582 -3.93014 0
M  V30 2444 H 238.064 0.858781 -5.015 0
M  V30 2445 H 237.462 3.90377 -4.09417 0
M  V30 2446 H 236.019 4.21195 -4.97432 0
M  V30 2447 N 239.452 1.56882 -0.150215 0
M  V30 2448 C 240.698 1.96518 0.500834 0
M  V30 2449 C 241.031 1.03527 1.64304 0
M  V30 2450 O 240.306 0.0782751 1.94342 0
M  V30 2451 C 240.589 3.45822 1.00395 0
M  V30 2452 C 240.442 4.49591 -0.136983 0
M  V30 2453 C 241.761 3.97704 1.88467 0
M  V30 2454 H 238.88 0.714535 0.18058 0
M  V30 2455 H 241.522 1.88577 -0.232091 0
M  V30 2456 H 239.672 3.5272 1.62851 0
M  V30 2457 H 241.344 4.5477 -0.77343 0
M  V30 2458 H 239.587 4.26441 -0.795652 0
M  V30 2459 H 240.258 5.51402 0.256815 0
M  V30 2460 H 242.734 3.93304 1.35834 0
M  V30 2461 H 241.61 5.0263 2.20578 0
M  V30 2462 H 241.871 3.40252 2.82279 0
M  V30 2463 N 240.93 -0.123565 1.57115 0
M  V30 2464 C 241.863 -1.18202 1.95201 0
M  V30 2465 C 242.841 -1.40349 0.821031 0
M  V30 2466 O 244.025 -1.54578 1.07879 0
M  V30 2467 C 241.152 -2.53671 2.24429 0
M  V30 2468 C 240.198 -2.4798 3.46999 0
M  V30 2469 S 241.031 -1.92389 4.99747 0
M  V30 2470 C 242.187 -3.2954 5.32123 0
M  V30 2471 H 242.42 -0.857212 2.84674 0
M  V30 2472 H 239.953 -0.33014 1.50829 0
M  V30 2473 H 241.911 -3.3162 2.41947 0
M  V30 2474 H 240.572 -2.83332 1.35579 0
M  V30 2475 H 239.765 -3.47758 3.64801 0
M  V30 2476 H 239.367 -1.7815 3.28844 0
M  V30 2477 H 241.659 -4.25736 5.27025 0
M  V30 2478 H 242.602 -3.16569 6.33395 0
M  V30 2479 H 243.01 -3.27758 4.59603 0
M  V30 2480 N 242.408 -1.52605 -0.393616 0
M  V30 2481 C 243.819 -1.59417 -0.971761 0
M  V30 2482 C 244.17 -0.444173 -1.91106 0
M  V30 2483 O 243.295 0.433382 -2.12016 0
M  V30 2484 C 243.89 -2.88936 -1.76921 0
M  V30 2485 C 242.449 -2.98175 -2.29714 0
M  V30 2486 C 241.596 -2.54491 -1.10135 0
M  V30 2487 H 244.547 -1.57751 -0.173317 0
M  V30 2488 H 244.568 -2.75163 -2.62804 0
M  V30 2489 H 244.08 -3.72616 -1.08532 0
M  V30 2490 H 242.181 -2.19024 -3.01429 0
M  V30 2491 H 242.294 -4.02726 -2.59517 0
M  V30 2492 H 240.658 -2.08702 -1.45999 0
M  V30 2493 H 241.441 -3.4056 -0.432874 0
M  V30 2494 N 243.887 0.651787 -1.4349 0
M  V30 2495 C 244.817 1.77621 -1.51569 0
M  V30 2496 C 245.798 1.66022 -0.370253 0
M  V30 2497 O 246.983 1.85095 -0.587658 0
M  V30 2498 C 244.113 3.16056 -1.43966 0
M  V30 2499 C 243.067 3.4242 -2.56774 0
M  V30 2500 C 242.393 4.8067 -2.34223 0
M  V30 2501 C 243.693 3.37023 -3.99015 0
M  V30 2502 H 245.387 1.71117 -2.45681 0
M  V30 2503 H 242.933 0.821825 -1.18246 0
M  V30 2504 H 244.886 3.94472 -1.48221 0
M  V30 2505 H 243.61 3.23293 -0.463586 0
M  V30 2506 H 242.269 2.66375 -2.51873 0
M  V30 2507 H 241.917 4.84585 -1.34856 0
M  V30 2508 H 241.617 4.9927 -3.09844 0
M  V30 2509 H 243.141 5.61342 -2.40265 0
M  V30 2510 H 244.555 4.05374 -4.05395 0
M  V30 2511 H 242.952 3.67159 -4.74673 0
M  V30 2512 H 244.022 2.3518 -4.2405 0
M  V30 2513 N 245.365 1.30045 0.890287 0
M  V30 2514 C 246.328 1.15963 1.977 0
M  V30 2515 C 247.328 0.0923777 1.60534 0
M  V30 2516 O 248.518 0.340071 1.70848 0
M  V30 2517 C 245.65 0.775451 3.31963 0
M  V30 2518 H 246.843 2.12502 2.11619 0
M  V30 2519 H 244.396 1.13366 1.07601 0
M  V30 2520 H 245.131 -0.189671 3.23745 0
M  V30 2521 H 244.916 1.54668 3.60306 0
M  V30 2522 H 246.406 0.700251 4.11687 0
M  V30 2523 N 246.843 -1.10192 1.12674 0
M  V30 2524 C 247.806 -2.14786 0.799979 0
M  V30 2525 C 248.806 -1.59711 -0.18685 0
M  V30 2526 O 249.996 -1.74156 0.0392558 0
M  V30 2527 C 247.128 -3.40374 0.189228 0
M  V30 2528 H 248.321 -2.45203 1.72671 0
M  V30 2529 H 245.874 -1.25597 0.930326 0
M  V30 2530 H 246.609 -3.15577 -0.747107 0
M  V30 2531 H 246.394 -3.81637 0.899766 0
M  V30 2532 H 247.884 -4.17594 -0.0228143 0
M  V30 2533 N 248.321 -0.919034 -1.28029 0
M  V30 2534 C 249.568 -0.554934 -1.94748 0
M  V30 2535 C 249.896 0.90231 -1.72304 0
M  V30 2536 O 249.151 1.65767 -1.04018 0
M  V30 2537 C 249.45 -0.816855 -3.4794 0
M  V30 2538 C 249.116 -2.25448 -3.90492 0
M  V30 2539 C 247.778 -2.64752 -4.01821 0
M  V30 2540 C 250.13 -3.18977 -4.12193 0
M  V30 2541 C 247.458 -3.96727 -4.32232 0
M  V30 2542 C 249.81 -4.50523 -4.44086 0
M  V30 2543 C 248.474 -4.89673 -4.53626 0
M  V30 2544 H 247.744 -0.203065 -0.712633 0
M  V30 2545 H 250.391 -1.16136 -1.52265 0
M  V30 2546 H 248.696 -0.127677 -3.91592 0
M  V30 2547 H 250.393 -0.514238 -3.97689 0
M  V30 2548 H 246.983 -1.93952 -3.82205 0
M  V30 2549 H 251.167 -2.89817 -4.02889 0
M  V30 2550 H 246.423 -4.26754 -4.37825 0
M  V30 2551 H 250.597 -5.23005 -4.59825 0
M  V30 2552 H 248.224 -5.91969 -4.76946 0
M  V30 2553 N 249.799 1.42003 -0.683588 0
M  V30 2554 C 251.076 1.95112 -0.138075 0
M  V30 2555 C 251.456 1.62359 1.34918 0
M  V30 2556 O 250.804 0.924311 2.08971 0
M  V30 2557 C 251.014 3.46505 -0.416581 0
M  V30 2558 C 252.362 4.23254 -0.337834 0
M  V30 2559 O 253.386 3.54468 -0.35082 0
M  V30 2560 O 252.245 5.45743 -0.287596 0
M  V30 2561 H 249.339 0.826961 -0.00797996 0
M  V30 2562 H 251.885 1.51784 -0.758924 0
M  V30 2563 H 250.657 3.63582 -1.4465 0
M  V30 2564 H 250.28 3.969 0.235839 0
M  V30 2565 N 251.277 0.427512 1.51691 0
M  V30 2566 C 252.525 -0.141948 2.01601 0
M  V30 2567 C 252.846 -1.44067 1.31414 0
M  V30 2568 O 252.116 -1.90763 0.445658 0
M  V30 2569 H 250.696 -0.0554468 0.744939 0
M  V30 2570 H 253.358 0.567968 1.86441 0
M  V30 2571 H 252.454 -0.324913 3.10404 0
M  V30 2572 N 252.755 -1.56801 0.158532 0
M  V30 2573 C 253.687 -2.14488 -0.807923 0
M  V30 2574 C 254.7 -1.09721 -1.20271 0
M  V30 2575 O 255.889 -1.36956 -1.14478 0
M  V30 2576 C 252.989 -2.66217 -2.09718 0
M  V30 2577 C 252.162 -3.95507 -1.86796 0
M  V30 2578 C 251.221 -4.3243 -2.99818 0
M  V30 2579 O 250.247 -5.00543 -2.71008 0
M  V30 2580 N 251.449 -3.92947 -4.27285 0
M  V30 2581 H 254.214 -2.98042 -0.314816 0
M  V30 2582 H 251.775 -1.61881 -0.0246692 0
M  V30 2583 H 253.767 -2.87924 -2.84398 0
M  V30 2584 H 252.337 -1.87324 -2.50257 0
M  V30 2585 H 251.557 -3.82309 -0.96089 0
M  V30 2586 H 252.845 -4.79972 -1.68833 0
M  V30 2587 H 252.243 -3.38087 -4.53557 0
M  V30 2588 H 250.8 -4.19681 -4.9871 0
M  V30 2589 N 254.233 0.115231 -1.57178 0
M  V30 2590 C 255.649 0.468877 -1.52557 0
M  V30 2591 C 255.849 1.81649 -0.872125 0
M  V30 2592 O 254.905 2.48347 -0.45606 0
M  V30 2593 C 256.218 0.4499 -2.97315 0
M  V30 2594 C 257.766 0.533185 -3.08425 0
M  V30 2595 C 258.241 0.54456 -4.54751 0
M  V30 2596 N 259.732 0.605892 -4.5922 0
M  V30 2597 C 260.467 0.636203 -5.6986 0
M  V30 2598 N 259.963 0.623931 -6.89985 0
M  V30 2599 N 261.756 0.679496 -5.57978 0
M  V30 2600 H 253.907 -0.767712 -1.9804 0
M  V30 2601 H 256.17 -0.283609 -0.904583 0
M  V30 2602 H 255.876 -0.472721 -3.48509 0
M  V30 2603 H 255.75 1.27632 -3.5495 0
M  V30 2604 H 258.137 1.44623 -2.57232 0
M  V30 2605 H 258.218 -0.320995 -2.53778 0
M  V30 2606 H 257.862 -0.364452 -5.06591 0
M  V30 2607 H 257.792 1.41568 -5.07214 0
M  V30 2608 H 260.283 0.621386 -3.72756 0
M  V30 2609 H 260.596 0.649787 -7.70063 0
M  V30 2610 H 258.941 0.591296 -6.9248 0
M  V30 2611 H 262.132 0.686472 -4.63039 0
M  V30 2612 H 262.305 0.69965 -6.44212 0
M  V30 2613 N 255.711 1.52812 0.385517 0
M  V30 2614 C 256.959 1.67694 1.12797 0
M  V30 2615 C 257.28 0.421115 1.90399 0
M  V30 2616 O 256.55 -0.564551 1.87589 0
M  V30 2617 H 255.13 0.618155 0.419396 0
M  V30 2618 H 257.792 1.89938 0.436972 0
M  V30 2619 H 256.888 2.52896 1.82894 0
M  V30 2620 N 257.189 -0.644168 1.43834 0
M  V30 2621 C 258.435 -1.40431 1.47141 0
M  V30 2622 C 258.79 -1.92153 0.0975577 0
M  V30 2623 O 258.083 -1.69924 -0.885232 0
M  V30 2624 C 258.277 -2.59615 2.45631 0
M  V30 2625 C 258.106 -2.1956 3.92458 0
M  V30 2626 C 256.876 -2.07456 4.60749 0
M  V30 2627 C 259.074 -1.79281 4.8204 0
M  V30 2628 N 257.056 -1.60827 5.92459 0
M  V30 2629 C 258.427 -1.43801 6.03093 0
M  V30 2630 C 260.482 -1.66545 4.6922 0
M  V30 2631 C 259.185 -0.968599 7.12749 0
M  V30 2632 C 261.211 -1.21008 5.78888 0
M  V30 2633 C 260.573 -0.864711 6.99072 0
M  V30 2634 H 256.672 -0.509182 0.593513 0
M  V30 2635 H 259.256 -0.740351 1.80075 0
M  V30 2636 H 257.427 -3.23658 2.1471 0
M  V30 2637 H 259.159 -3.26357 2.39318 0
M  V30 2638 H 255.914 -2.275 4.1538 0
M  V30 2639 H 256.338 -1.39848 6.62398 0
M  V30 2640 H 260.98 -1.91883 3.7675 0
M  V30 2641 H 258.698 -0.702715 8.05039 0
M  V30 2642 H 262.284 -1.11631 5.7099 0
M  V30 2643 H 261.164 -0.517736 7.82489 0
M  V30 2644 N 258.668 -1.30515 -0.883378 0
M  V30 2645 C 259.916 -1.19194 -1.63209 0
M  V30 2646 C 260.237 0.253205 -1.93349 0
M  V30 2647 O 259.507 1.17025 -1.57105 0
M  V30 2648 H 258.087 -0.438148 -0.605009 0
M  V30 2649 H 260.749 -1.63663 -1.05832 0
M  V30 2650 H 259.845 -1.75396 -2.58153 0
M  V30 2651 N 260.146 1.09593 -1.13257 0
M  V30 2652 C 261.376 1.85231 -0.915049 0
M  V30 2653 C 261.784 1.81345 0.539498 0
M  V30 2654 O 261.127 1.20664 1.38513 0
M  V30 2655 C 261.189 3.34275 -1.3229 0
M  V30 2656 C 260.853 3.6191 -2.79052 0
M  V30 2657 C 261.85 3.57777 -3.77216 0
M  V30 2658 C 259.535 3.90309 -3.16171 0
M  V30 2659 C 261.529 3.81652 -5.1051 0
M  V30 2660 C 259.216 4.13839 -4.49644 0
M  V30 2661 C 260.214 4.09502 -5.46623 0
M  V30 2662 O 259.902 4.32426 -6.77689 0
M  V30 2663 H 259.634 0.591997 -0.326367 0
M  V30 2664 H 262.188 1.394 -1.50854 0
M  V30 2665 H 260.418 3.80805 -0.672667 0
M  V30 2666 H 262.107 3.9132 -1.07812 0
M  V30 2667 H 262.873 3.35865 -3.49885 0
M  V30 2668 H 258.752 3.92811 -2.41289 0
M  V30 2669 H 262.296 3.78182 -5.86195 0
M  V30 2670 H 258.193 4.35232 -4.767 0
M  V30 2671 H 258.961 4.49896 -6.83766 0
M  V30 2672 N 261.624 0.925811 1.2754 0
M  V30 2673 C 262.901 0.483726 1.89524 0
M  V30 2674 C 263.281 -1.03809 1.83812 0
M  V30 2675 O 262.629 -1.89143 1.28207 0
M  V30 2676 C 262.839 1.02769 3.33526 0
M  V30 2677 C 264.187 1.08703 4.10449 0
M  V30 2678 O 265.211 0.977175 3.42534 0
M  V30 2679 O 264.07 1.25599 5.31871 0
M  V30 2680 H 261.164 0.15529 0.812289 0
M  V30 2681 H 263.71 1.01738 1.35822 0
M  V30 2682 H 262.482 2.07155 3.31967 0
M  V30 2683 H 262.105 0.475567 3.94746 0
M  V30 2684 N 263.102 -1.41638 0.69111 0
M  V30 2685 C 264.35 -2.00902 0.219758 0
M  V30 2686 C 264.671 -1.54994 -1.18329 0
M  V30 2687 O 263.941 -0.778628 -1.79762 0
M  V30 2688 H 262.521 -0.74289 0.0782558 0
M  V30 2689 H 265.183 -1.73327 0.891271 0
M  V30 2690 H 264.279 -3.11224 0.233708 0
M  V30 2691 N 264.58 -0.43555 -1.51462 0
M  V30 2692 C 265.543 0.365137 -2.26273 0
M  V30 2693 C 266.543 0.951227 -1.29647 0
M  V30 2694 O 267.733 0.825958 -1.53374 0
M  V30 2695 C 264.865 1.51645 -3.05314 0
M  V30 2696 H 266.058 -0.290474 -2.9849 0
M  V30 2697 H 263.611 -0.188676 -1.55157 0
M  V30 2698 H 264.346 2.20816 -2.3751 0
M  V30 2699 H 264.131 1.10238 -3.76284 0
M  V30 2700 H 265.621 2.08218 -3.61987 0
M  V30 2701 N 266.058 1.56714 -0.166846 0
M  V30 2702 C 267.021 2.16539 0.751232 0
M  V30 2703 C 268.021 1.11228 1.16125 0
M  V30 2704 O 269.211 1.36765 1.07894 0
M  V30 2705 C 266.343 2.74462 2.02196 0
M  V30 2706 H 267.536 2.99013 0.230499 0
M  V30 2707 H 265.089 1.56081 0.0826982 0
M  V30 2708 H 265.824 1.95709 2.58589 0
M  V30 2709 H 265.609 3.51527 1.73698 0
M  V30 2710 H 267.099 3.20489 2.67725 0
M  V30 2711 N 267.536 -0.106894 1.57237 0
M  V30 2712 C 268.783 -0.812526 1.85484 0
M  V30 2713 C 269.111 -1.79304 0.753687 0
M  V30 2714 O 268.366 -1.94047 -0.253853 0
M  V30 2715 C 268.665 -1.58628 3.20268 0
M  V30 2716 C 268.331 -0.748967 4.44636 0
M  V30 2717 C 266.993 -0.518104 4.78403 0
M  V30 2718 C 269.345 -0.166122 5.20935 0
M  V30 2719 C 266.673 0.305659 5.85903 0
M  V30 2720 C 269.025 0.644899 6.29304 0
M  V30 2721 C 267.689 0.885965 6.61594 0
M  V30 2722 H 266.959 -0.297324 0.678734 0
M  V30 2723 H 269.606 -0.0744332 1.91355 0
M  V30 2724 H 267.911 -2.39562 3.10028 0
M  V30 2725 H 269.608 -2.13643 3.39349 0
M  V30 2726 H 266.198 -0.939006 4.18187 0
M  V30 2727 H 270.382 -0.33167 4.95191 0
M  V30 2728 H 265.638 0.501528 6.0934 0
M  V30 2729 H 269.812 1.10345 6.87602 0
M  V30 2730 H 267.439 1.52609 7.44725 0
M  V30 2731 N 269.014 -1.53014 -0.377408 0
M  V30 2732 C 270.244 -1.72265 -1.14054 0
M  V30 2733 C 270.652 -0.44601 -1.83868 0
M  V30 2734 O 269.995 0.590095 -1.73964 0
M  V30 2735 C 270.057 -2.82492 -2.22348 0
M  V30 2736 C 269.721 -4.23233 -1.72402 0
M  V30 2737 C 270.718 -5.05992 -1.19448 0
M  V30 2738 C 268.403 -4.696 -1.78273 0
M  V30 2739 C 270.397 -6.33203 -0.730268 0
M  V30 2740 C 268.084 -5.96792 -1.31464 0
M  V30 2741 C 269.082 -6.78424 -0.789297 0
M  V30 2742 O 268.77 -8.0323 -0.328077 0
M  V30 2743 H 268.502 -0.579873 -0.347453 0
M  V30 2744 H 271.056 -2.00502 -0.445882 0
M  V30 2745 H 269.286 -2.49702 -2.95272 0
M  V30 2746 H 270.975 -2.90034 -2.83963 0
M  V30 2747 H 271.741 -4.71349 -1.14259 0
M  V30 2748 H 267.62 -4.06142 -2.18106 0
M  V30 2749 H 271.164 -6.96868 -0.319542 0
M  V30 2750 H 267.061 -6.30937 -1.36342 0
M  V30 2751 H 267.829 -8.1727 -0.448493 0
M  V30 2752 N 270.492 0.636531 -1.44174 0
M  V30 2753 C 271.455 1.73063 -1.50273 0
M  V30 2754 C 272.455 1.56113 -0.385397 0
M  V30 2755 O 273.645 1.61707 -0.64781 0
M  V30 2756 C 270.777 3.12096 -1.37145 0
M  V30 2757 H 271.97 1.69031 -2.47727 0
M  V30 2758 H 269.523 0.849706 -1.31186 0
M  V30 2759 H 270.258 3.21728 -0.407636 0
M  V30 2760 H 270.043 3.25805 -2.18159 0
M  V30 2761 H 271.533 3.91846 -1.44382 0
M  V30 2762 N 271.97 1.30982 0.876444 0
M  V30 2763 C 273.381 1.18277 1.44456 0
M  V30 2764 C 273.732 -0.213265 1.95037 0
M  V30 2765 O 272.857 -1.11057 1.85729 0
M  V30 2766 C 273.452 2.1411 2.62569 0
M  V30 2767 C 272.011 2.05358 3.15444 0
M  V30 2768 C 271.158 2.03706 1.88146 0
M  V30 2769 H 274.109 1.43127 0.685584 0
M  V30 2770 H 274.13 1.72692 3.39054 0
M  V30 2771 H 273.642 3.15706 2.25724 0
M  V30 2772 H 271.743 1.06934 3.56926 0
M  V30 2773 H 271.856 2.94156 3.78166 0
M  V30 2774 H 270.22 1.48629 2.06837 0
M  V30 2775 H 271.003 3.07047 1.53547 0
M  V30 2776 N 273.449 -1.08991 1.13837 0
M  V30 2777 C 274.679 -1.84743 0.924859 0
M  V30 2778 C 275.087 -1.81629 -0.529874 0
M  V30 2779 O 274.43 -1.21397 -1.37872 0
M  V30 2780 C 274.492 -3.33568 1.34061 0
M  V30 2781 C 274.156 -3.60425 2.80968 0
M  V30 2782 C 275.153 -3.55771 3.79108 0
M  V30 2783 C 272.838 -3.88627 3.18236 0
M  V30 2784 C 274.832 -3.78939 5.12527 0
M  V30 2785 C 272.519 -4.11449 4.51833 0
M  V30 2786 C 273.517 -4.06598 5.48787 0
M  V30 2787 O 273.205 -4.28826 6.79973 0
M  V30 2788 H 272.937 -0.590258 0.329502 0
M  V30 2789 H 275.491 -1.38598 1.51591 0
M  V30 2790 H 273.721 -3.80442 0.692853 0
M  V30 2791 H 275.41 -3.90743 1.09886 0
M  V30 2792 H 276.176 -3.34005 3.51661 0
M  V30 2793 H 272.055 -3.91526 2.43369 0
M  V30 2794 H 275.599 -3.75068 5.88192 0
M  V30 2795 H 271.496 -4.32698 4.79002 0
M  V30 2796 H 272.264 -4.46264 6.86142 0
M  V30 2797 N 274.927 -0.932562 -1.27047 0
M  V30 2798 C 275.89 -0.440064 -2.24936 0
M  V30 2799 C 276.89 0.444071 -1.54547 0
M  V30 2800 O 278.08 0.244465 -1.72476 0
M  V30 2801 C 275.212 0.36678 -3.38921 0
M  V30 2802 H 276.405 -1.305 -2.70018 0
M  V30 2803 H 273.958 -0.713707 -1.39054 0
M  V30 2804 H 274.693 1.25033 -2.99228 0
M  V30 2805 H 274.478 -0.267204 -3.91188 0
M  V30 2806 H 275.968 0.701567 -4.11665 0
M  V30 2807 N 276.405 1.4127 -0.698611 0
M  V30 2808 C 277.816 1.84187 -0.305289 0
M  V30 2809 C 278.167 1.58449 1.15708 0
M  V30 2810 O 277.292 1.05651 1.88856 0
M  V30 2811 C 277.887 3.3435 -0.547314 0
M  V30 2812 C 276.446 3.75826 -0.207878 0
M  V30 2813 C 275.593 2.64647 -0.828099 0
M  V30 2814 H 278.544 1.30778 -0.89904 0
M  V30 2815 H 278.565 3.8001 0.192998 0
M  V30 2816 H 278.077 3.53051 -1.61172 0
M  V30 2817 H 276.178 3.62725 0.852143 0
M  V30 2818 H 276.291 4.74462 -0.665021 0
M  V30 2819 H 274.655 2.53395 -0.257458 0
M  V30 2820 H 275.438 2.86165 -1.89643 0
M  V30 2821 N 277.883 0.443576 1.51229 0
M  V30 2822 C 279.113 -0.119117 2.06256 0
M  V30 2823 C 279.521 -1.36471 1.31043 0
M  V30 2824 O 278.864 -1.80034 0.365151 0
M  V30 2825 C 278.926 -0.500546 3.55998 0
M  V30 2826 C 278.59 0.639125 4.52509 0
M  V30 2827 C 279.587 1.51311 4.97394 0
M  V30 2828 C 277.272 0.821632 4.95535 0
M  V30 2829 C 279.266 2.55425 5.83984 0
M  V30 2830 C 276.953 1.86603 5.81913 0
M  V30 2831 C 277.951 2.73072 6.26036 0
M  V30 2832 O 277.639 3.75718 7.10698 0
M  V30 2833 H 277.371 -0.00857665 0.675946 0
M  V30 2834 H 279.925 0.623288 1.95715 0
M  V30 2835 H 278.155 -1.29575 3.64345 0
M  V30 2836 H 279.844 -0.995116 3.93513 0
M  V30 2837 H 280.61 1.38367 4.64844 0
M  V30 2838 H 276.489 0.158149 4.60729 0
M  V30 2839 H 280.033 3.22949 6.18344 0
M  V30 2840 H 275.93 1.99564 6.13876 0
M  V30 2841 H 276.698 3.72374 7.2889 0
M  V30 2842 N 279.361 -1.56624 0.175154 0
M  V30 2843 C 280.609 -1.96609 -0.467885 0
M  V30 2844 C 280.93 -1.06238 -1.63519 0
M  V30 2845 O 280.2 -0.129523 -1.95471 0
M  V30 2846 H 278.78 -0.726008 -0.175845 0
M  V30 2847 H 281.442 -1.93195 0.257234 0
M  V30 2848 H 280.538 -3.00989 -0.825342 0
M  V30 2849 N 280.839 0.0985539 -1.57292 0
M  V30 2850 C 282.255 0.45267 -1.53046 0
M  V30 2851 C 282.455 1.80713 -0.891342 0
M  V30 2852 O 281.511 2.4785 -0.482375 0
M  V30 2853 C 282.824 0.418341 -2.97776 0
M  V30 2854 C 284.372 0.500443 -3.08973 0
M  V30 2855 C 284.847 0.496297 -4.55303 0
M  V30 2856 N 286.338 0.557151 -4.59837 0
M  V30 2857 C 287.073 0.575726 -5.70502 0
M  V30 2858 N 286.569 0.550714 -6.90608 0
M  V30 2859 N 288.362 0.620277 -5.58667 0
M  V30 2860 H 280.513 -0.788673 -1.97215 0
M  V30 2861 H 282.776 -0.293188 -0.901524 0
M  V30 2862 H 282.482 -0.509659 -3.47988 0
M  V30 2863 H 282.356 1.2386 -3.56284 0
M  V30 2864 H 284.743 1.41886 -2.58751 0
M  V30 2865 H 284.824 -0.347894 -2.53423 0
M  V30 2866 H 284.468 -0.418162 -5.06176 0
M  V30 2867 H 284.398 1.3618 -5.08687 0
M  V30 2868 H 286.889 0.581816 -3.73394 0
M  V30 2869 H 287.202 0.568075 -7.70709 0
M  V30 2870 H 285.547 0.517816 -6.93068 0
M  V30 2871 H 288.738 0.637322 -4.63741 0
M  V30 2872 H 288.911 0.631283 -6.44918 0
M  V30 2873 N 282.317 1.53212 0.369288 0
M  V30 2874 C 283.728 1.60943 0.946276 0
M  V30 2875 C 284.079 0.47452 1.90375 0
M  V30 2876 O 283.204 -0.399597 2.12679 0
M  V30 2877 C 283.799 2.91715 1.72302 0
M  V30 2878 C 282.358 3.01792 2.24941 0
M  V30 2879 C 281.505 2.56211 1.06072 0
M  V30 2880 H 284.456 1.58007 0.148198 0
M  V30 2881 H 284.477 2.79309 2.58393 0
M  V30 2882 H 283.989 3.74295 1.0259 0
M  V30 2883 H 282.09 2.23791 2.97906 0
M  V30 2884 H 282.203 4.06803 2.53077 0
M  V30 2885 H 280.567 2.10998 1.4266 0
M  V30 2886 H 281.35 3.41206 0.378639 0
M  V30 2887 N 283.795 -0.628877 1.44509 0
M  V30 2888 C 284.705 -1.7694 1.54044 0
M  V30 2889 C 285.721 -1.68705 0.425987 0
M  V30 2890 O 286.897 -1.89442 0.683656 0
M  V30 2891 C 283.962 -3.13332 1.48405 0
M  V30 2892 C 283.023 -3.33181 2.70719 0
M  V30 2893 C 282.256 -4.63067 2.6534 0
M  V30 2894 O 282.479 -5.44017 1.71469 0
M  V30 2895 O 281.413 -4.85167 3.56226 0
M  V30 2896 H 285.239 -1.71848 2.50403 0
M  V30 2897 H 282.824 -0.790378 1.26781 0
M  V30 2898 H 284.706 -3.94634 1.47791 0
M  V30 2899 H 283.381 -3.1896 0.551898 0
M  V30 2900 H 282.288 -2.51549 2.769 0
M  V30 2901 H 283.621 -3.32416 3.62988 0
M  V30 2902 N 285.273 -1.31445 -0.869486 0
M  V30 2903 C 286.55 -1.11795 -1.60503 0
M  V30 2904 C 286.93 0.327168 -2.08549 0
M  V30 2905 O 286.278 1.32135 -1.8642 0
M  V30 2906 C 286.488 -2.13258 -2.76265 0
M  V30 2907 C 287.836 -2.45805 -3.46215 0
M  V30 2908 O 288.86 -2.11688 -2.86473 0
M  V30 2909 O 287.719 -3.04228 -4.5399 0
M  V30 2910 H 284.813 -0.430421 -0.706163 0
M  V30 2911 H 287.359 -1.42925 -0.914907 0
M  V30 2912 H 286.131 -3.10461 -2.3818 0
M  V30 2913 H 285.754 -1.83035 -3.52964 0
M  V30 2914 N 286.751 1.08385 -1.14413 0
M  V30 2915 C 287.681 2.17321 -0.854044 0
M  V30 2916 C 288.662 1.69024 0.191049 0
M  V30 2917 O 289.847 1.94141 0.0476779 0
M  V30 2918 C 286.977 3.45719 -0.330983 0
M  V30 2919 C 285.931 4.07409 -1.31155 0
M  V30 2920 C 285.257 5.30762 -0.64778 0
M  V30 2921 C 286.557 4.48665 -2.67388 0
M  V30 2922 H 288.251 2.41845 -1.76498 0
M  V30 2923 H 285.797 1.16233 -0.850051 0
M  V30 2924 H 287.75 4.21241 -0.115645 0
M  V30 2925 H 286.474 3.2075 0.615381 0
M  V30 2926 H 285.133 3.33919 -1.51306 0
M  V30 2927 H 284.781 5.02078 0.304398 0
M  V30 2928 H 284.481 5.72992 -1.30207 0
M  V30 2929 H 286.005 6.08998 -0.441972 0
M  V30 2930 H 287.419 5.15364 -2.51143 0
M  V30 2931 H 285.816 5.01814 -3.29093 0
M  V30 2932 H 286.886 3.60543 -3.24248 0
M  V30 2933 N 288.23 0.939286 1.26551 0
M  V30 2934 C 289.163 0.391702 2.24813 0
M  V30 2935 C 290.141 -0.518421 1.54114 0
M  V30 2936 O 291.325 -0.456299 1.82894 0
M  V30 2937 C 288.452 -0.437382 3.35864 0
M  V30 2938 C 287.498 0.410946 4.24516 0
M  V30 2939 S 288.331 1.83372 5.03125 0
M  V30 2940 C 289.487 1.01264 6.17654 0
M  V30 2941 H 289.72 1.22448 2.70913 0
M  V30 2942 H 287.253 0.742269 1.35387 0
M  V30 2943 H 289.211 -0.909837 4.0029 0
M  V30 2944 H 287.872 -1.24482 2.8838 0
M  V30 2945 H 287.065 -0.224191 5.03501 0
M  V30 2946 H 286.667 0.818014 3.64945 0
M  V30 2947 H 288.959 0.254023 6.77024 0
M  V30 2948 H 289.902 1.77589 6.85469 0
M  V30 2949 H 290.31 0.549532 5.61819 0
M  V30 2950 N 289.708 -1.40897 0.706093 0
M  V30 2951 C 290.671 -2.29131 0.0562841 0
M  V30 2952 C 291.671 -1.44901 -0.697166 0
M  V30 2953 O 292.861 -1.65926 -0.530484 0
M  V30 2954 C 289.993 -3.27957 -0.93043 0
M  V30 2955 H 291.186 -2.88091 0.833284 0
M  V30 2956 H 288.739 -1.4906 0.470192 0
M  V30 2957 H 289.474 -2.73997 -1.73482 0
M  V30 2958 H 289.259 -3.90124 -0.393166 0
M  V30 2959 H 290.749 -3.94049 -1.38256 0
M  V30 2960 N 291.186 -0.45159 -1.50991 0
M  V30 2961 C 292.116 0.342898 -2.30969 0
M  V30 2962 C 293.097 1.00815 -1.37005 0
M  V30 2963 O 294.282 1.00907 -1.65926 0
M  V30 2964 C 291.412 1.43637 -3.16205 0
M  V30 2965 C 290.366 0.893818 -4.18563 0
M  V30 2966 C 289.692 2.08411 -4.92411 0
M  V30 2967 C 290.992 -0.0815568 -5.22236 0
M  V30 2968 H 292.686 -0.324556 -2.97636 0
M  V30 2969 H 290.232 -0.157531 -1.43136 0
M  V30 2970 H 292.185 1.9995 -3.70942 0
M  V30 2971 H 290.909 2.13232 -2.47386 0
M  V30 2972 H 289.568 0.352798 -3.64898 0
M  V30 2973 H 289.216 2.76658 -4.20082 0
M  V30 2974 H 288.916 1.72741 -5.61636 0
M  V30 2975 H 290.44 2.65251 -5.49976 0
M  V30 2976 H 291.854 0.391742 -5.7196 0
M  V30 2977 H 290.251 -0.351551 -5.99069 0
M  V30 2978 H 291.321 -1.01374 -4.74185 0
M  V30 2979 N 292.664 1.56529 -0.183458 0
M  V30 2980 C 293.91 1.97537 0.459036 0
M  V30 2981 C 294.243 1.06989 1.62071 0
M  V30 2982 O 293.518 0.11948 1.94133 0
M  V30 2983 C 293.801 3.47874 0.930368 0
M  V30 2984 C 293.654 4.492 -0.232317 0
M  V30 2985 C 294.973 4.01612 1.79989 0
M  V30 2986 H 292.092 0.718204 0.165383 0
M  V30 2987 H 294.734 1.88042 -0.272038 0
M  V30 2988 H 292.884 3.56095 1.55333 0
M  V30 2989 H 294.556 4.53027 -0.86972 0
M  V30 2990 H 292.799 4.24657 -0.885928 0
M  V30 2991 H 293.47 5.51823 0.139796 0
M  V30 2992 H 295.946 3.96097 1.27461 0
M  V30 2993 H 294.822 5.07195 2.09867 0
M  V30 2994 H 295.083 3.46163 2.74998 0
M  V30 2995 N 294.142 -0.090211 1.57342 0
M  V30 2996 C 295.419 -0.824761 1.77361 0
M  V30 2997 C 295.799 -1.96698 0.76637 0
M  V30 2998 O 295.147 -2.27586 -0.204179 0
M  V30 2999 C 295.357 -1.31481 3.23286 0
M  V30 3000 C 296.705 -1.75563 3.86604 0
M  V30 3001 O 297.729 -1.41093 3.27065 0
M  V30 3002 O 296.588 -2.39317 4.91314 0
M  V30 3003 H 293.682 -0.393776 0.727234 0
M  V30 3004 H 296.228 -0.0717138 1.69548 0
M  V30 3005 H 295 -0.496671 3.88135 0
M  V30 3006 H 294.623 -2.12973 3.35751 0
M  V30 3007 N 295.62 -1.53406 -0.361157 0
M  V30 3008 C 296.583 -1.79479 -1.42548 0
M  V30 3009 C 297.583 -0.665327 -1.4639 0
M  V30 3010 O 298.773 -0.933549 -1.47073 0
M  V30 3011 C 295.905 -1.92087 -2.8163 0
M  V30 3012 H 297.098 -2.74538 -1.20701 0
M  V30 3013 H 294.651 -1.4455 -0.594546 0
M  V30 3014 H 295.386 -0.991099 -3.08784 0
M  V30 3015 H 295.171 -2.74241 -2.80239 0
M  V30 3016 H 296.661 -2.13836 -3.58697 0
M  V30 3017 N 297.098 0.621204 -1.44841 0
M  V30 3018 C 298.061 1.71459 -1.521 0
M  V30 3019 C 299.061 1.55696 -0.401933 0
M  V30 3020 O 300.251 1.61011 -0.664925 0
M  V30 3021 C 297.383 3.10624 -1.40447 0
M  V30 3022 H 298.576 1.66394 -2.49506 0
M  V30 3023 H 296.129 0.835745 -1.3208 0
M  V30 3024 H 296.864 3.21277 -0.441737 0
M  V30 3025 H 296.649 3.23473 -2.21602 0
M  V30 3026 H 298.139 3.90293 -1.4853 0
M  V30 3027 N 298.576 1.31904 0.862503 0
M  V30 3028 C 299.526 1.16772 1.95827 0
M  V30 3029 C 300.51 0.0767098 1.60717 0
M  V30 3030 O 301.702 0.302407 1.74398 0
M  V30 3031 C 298.831 0.884858 3.317 0
M  V30 3032 C 297.917 2.0172 3.73055 0
M  V30 3033 N 298.308 3.265 3.86305 0
M  V30 3034 C 296.606 1.91861 4.02623 0
M  V30 3035 C 297.307 4.00616 4.2176 0
M  V30 3036 N 296.283 3.28847 4.32852 0
M  V30 3037 H 300.085 2.11382 2.04193 0
M  V30 3038 H 297.599 1.2357 1.05377 0
M  V30 3039 H 299.596 0.757419 4.09962 0
M  V30 3040 H 298.256 -0.0529448 3.24657 0
M  V30 3041 H 299.267 3.61529 3.70833 0
M  V30 3042 H 295.944 1.05593 4.03926 0
M  V30 3043 H 297.334 5.08182 4.39546 0
M  V30 3044 N 300.054 -1.07777 1.14986 0
M  V30 3045 C 301.47 -1.32373 0.891596 0
M  V30 3046 C 301.67 -1.9609 -0.463788 0
M  V30 3047 O 300.726 -2.21801 -1.20667 0
M  V30 3048 C 302.039 -2.21905 2.02925 0
M  V30 3049 C 303.587 -2.35367 2.06329 0
M  V30 3050 C 304.062 -3.28245 3.19405 0
M  V30 3051 N 305.553 -3.35824 3.19024 0
M  V30 3052 C 306.288 -4.07739 4.03158 0
M  V30 3053 N 305.784 -4.82306 4.97346 0
M  V30 3054 N 307.577 -4.03635 3.91197 0
M  V30 3055 H 299.728 -0.648039 2.02273 0
M  V30 3056 H 301.991 -0.348149 0.881757 0
M  V30 3057 H 301.697 -1.82342 3.0074 0
M  V30 3058 H 301.571 -3.22407 1.95789 0
M  V30 3059 H 303.958 -2.74186 1.09116 0
M  V30 3060 H 304.039 -1.34585 2.17533 0
M  V30 3061 H 303.683 -2.90146 4.16867 0
M  V30 3062 H 303.613 -4.28971 3.05437 0
M  V30 3063 H 306.104 -2.8267 2.50811 0
M  V30 3064 H 306.417 -5.34661 5.57994 0
M  V30 3065 H 304.762 -4.81337 5.01338 0
M  V30 3066 H 307.953 -3.44491 3.16928 0
M  V30 3067 H 308.126 -4.59417 4.5699 0
M  V30 3068 N 301.532 -0.945985 -1.26051 0
M  V30 3069 C 302.462 -0.477172 -2.28572 0
M  V30 3070 C 303.443 0.472032 -1.63419 0
M  V30 3071 O 304.628 0.372853 -1.90587 0
M  V30 3072 C 301.758 0.253975 -3.4637 0
M  V30 3073 C 300.712 -0.609135 -4.23643 0
M  V30 3074 C 300.038 0.252252 -5.34105 0
M  V30 3075 C 301.338 -1.8829 -4.8718 0
M  V30 3076 H 303.032 -1.33402 -2.68038 0
M  V30 3077 H 300.578 -0.642904 -1.28852 0
M  V30 3078 H 302.531 0.593016 -4.17207 0
M  V30 3079 H 301.255 1.145 -3.05871 0
M  V30 3080 H 299.914 -0.931138 -3.54578 0
M  V30 3081 H 299.562 1.14278 -4.89846 0
M  V30 3082 H 299.262 -0.32188 -5.86718 0
M  V30 3083 H 300.786 0.586454 -6.07777 0
M  V30 3084 H 302.2 -1.61081 -5.50205 0
M  V30 3085 H 300.597 -2.40199 -5.49931 0
M  V30 3086 H 301.667 -2.59134 -4.09851 0
M  V30 3087 N 303.011 1.40521 -0.713556 0
M  V30 3088 C 304.259 2.00527 -0.251692 0
M  V30 3089 C 304.58 1.56857 1.15848 0
M  V30 3090 O 303.85 0.807127 1.785 0
M  V30 3091 H 302.43 0.741551 -0.0900646 0
M  V30 3092 H 305.092 1.71887 -0.918733 0
M  V30 3093 H 304.188 3.10813 -0.283192 0
M  V30 3094 N 304.489 0.459591 1.5075 0
M  V30 3095 C 305.419 -0.330644 2.31147 0
M  V30 3096 C 306.4 -1.00087 1.37538 0
M  V30 3097 O 307.585 -1.00025 1.66459 0
M  V30 3098 C 304.715 -1.41958 3.16962 0
M  V30 3099 C 303.669 -0.871608 4.19031 0
M  V30 3100 C 302.995 -2.05797 4.9351 0
M  V30 3101 C 304.295 0.109251 5.22186 0
M  V30 3102 H 305.989 0.340336 2.97459 0
M  V30 3103 H 303.535 0.165119 1.4305 0
M  V30 3104 H 305.488 -1.9798 3.71997 0
M  V30 3105 H 304.212 -2.11917 2.48513 0
M  V30 3106 H 302.871 -0.333442 3.6508 0
M  V30 3107 H 302.519 -2.74427 4.21544 0
M  V30 3108 H 302.219 -1.6976 5.62544 0
M  V30 3109 H 303.743 -2.62331 5.51375 0
M  V30 3110 H 305.157 -0.361405 5.7216 0
M  V30 3111 H 303.554 0.383316 5.98875 0
M  V30 3112 H 304.624 1.03887 4.73641 0
M  V30 3113 N 305.967 -1.56429 0.191757 0
M  V30 3114 C 307.215 -1.97095 -0.447006 0
M  V30 3115 C 307.536 -1.07967 -1.62383 0
M  V30 3116 O 306.806 -0.150248 -1.95323 0
M  V30 3117 H 305.386 -0.727832 -0.168135 0
M  V30 3118 H 308.048 -1.92911 0.27771 0
M  V30 3119 H 307.144 -3.01848 -0.793371 0
M  V30 3120 N 307.445 0.0818655 -1.57387 0
M  V30 3121 C 308.691 0.784074 -1.8703 0
M  V30 3122 C 309.024 1.77729 -0.782689 0
M  V30 3123 O 308.299 1.93384 0.208051 0
M  V30 3124 C 308.582 1.50105 -3.27323 0
M  V30 3125 C 308.435 0.524925 -4.46727 0
M  V30 3126 C 309.754 2.44843 -3.65705 0
M  V30 3127 H 306.873 0.283582 -0.680257 0
M  V30 3128 H 309.515 0.0474352 -1.89941 0
M  V30 3129 H 307.665 2.12897 -3.24972 0
M  V30 3130 H 309.337 -0.0970111 -4.61198 0
M  V30 3131 H 307.58 -0.160606 -4.33503 0
M  V30 3132 H 308.251 1.064 -5.41648 0
M  V30 3133 H 310.727 1.92135 -3.69085 0
M  V30 3134 H 309.603 2.92018 -4.64776 0
M  V30 3135 H 309.864 3.29197 -2.95096 0
M  V30 3136 N 308.923 1.53595 0.353017 0
M  V30 3137 C 310.17 1.70385 1.09431 0
M  V30 3138 C 310.498 0.462113 1.88931 0
M  V30 3139 O 309.753 -0.556074 1.87633 0
M  V30 3140 C 310.052 2.91313 2.07054 0
M  V30 3141 C 309.718 4.27308 1.43939 0
M  V30 3142 C 308.38 4.64287 1.26454 0
M  V30 3143 C 310.732 5.11829 0.983883 0
M  V30 3144 C 308.06 5.83412 0.620226 0
M  V30 3145 C 310.412 6.31611 0.353516 0
M  V30 3146 C 309.076 6.67293 0.166272 0
M  V30 3147 H 308.346 0.623484 0.400436 0
M  V30 3148 H 310.993 1.87799 0.374655 0
M  V30 3149 H 309.298 2.68463 2.85368 0
M  V30 3150 H 310.995 3.01497 2.64387 0
M  V30 3151 H 307.585 3.98198 1.58543 0
M  V30 3152 H 311.769 4.838 1.10685 0
M  V30 3153 H 307.025 6.09639 0.463681 0
M  V30 3154 H 311.199 6.964 -0.00757555 0
M  V30 3155 H 308.826 7.59461 -0.335047 0
M  V30 3156 N 310.401 -0.613514 1.45168 0
M  V30 3157 C 311.331 -1.7354 1.56225 0
M  V30 3158 C 312.312 -1.64981 0.41414 0
M  V30 3159 O 313.497 -1.83472 0.636526 0
M  V30 3160 C 310.627 -3.12128 1.52295 0
M  V30 3161 C 309.581 -3.35491 2.65762 0
M  V30 3162 C 308.907 -4.74291 2.46885 0
M  V30 3163 C 310.207 -3.26325 4.0781 0
M  V30 3164 H 311.901 -1.64543 2.50132 0
M  V30 3165 H 309.447 -0.790185 1.20383 0
M  V30 3166 H 311.4 -3.90404 1.58628 0
M  V30 3167 H 310.124 -3.2195 0.549139 0
M  V30 3168 H 308.783 -2.59603 2.58847 0
M  V30 3169 H 308.431 -4.80839 1.47657 0
M  V30 3170 H 308.131 -4.9088 3.22972 0
M  V30 3171 H 309.655 -5.54775 2.55063 0
M  V30 3172 H 311.069 -3.94483 4.16 0
M  V30 3173 H 309.466 -3.54445 4.8424 0
M  V30 3174 H 310.536 -2.23855 4.30136 0
M  V30 3175 N 311.879 -1.3236 -0.855495 0
M  V30 3176 C 313.156 -1.13491 -1.59309 0
M  V30 3177 C 313.536 0.30503 -2.08885 0
M  V30 3178 O 312.884 1.30151 -1.87811 0
M  V30 3179 C 313.094 -2.16176 -2.73987 0
M  V30 3180 C 314.442 -2.49463 -3.43589 0
M  V30 3181 O 315.466 -2.14715 -2.84211 0
M  V30 3182 O 314.325 -3.09027 -4.50738 0
M  V30 3183 H 311.419 -0.437887 -0.701559 0
M  V30 3184 H 313.965 -1.43887 -0.899696 0
M  V30 3185 H 312.737 -3.1297 -2.34873 0
M  V30 3186 H 312.36 -1.86769 -3.51003 0
M  V30 3187 N 313.357 1.07166 -1.15556 0
M  V30 3188 C 314.603 1.80065 -0.932984 0
M  V30 3189 C 314.936 1.86586 0.53845 0
M  V30 3190 O 314.211 1.35098 1.39924 0
M  V30 3191 C 314.494 3.25022 -1.55025 0
M  V30 3192 C 314.347 3.26634 -3.09242 0
M  V30 3193 C 315.666 4.22341 -1.2376 0
M  V30 3194 H 312.785 0.653697 -0.340366 0
M  V30 3195 H 315.427 1.25389 -1.4275 0
M  V30 3196 H 313.577 3.71712 -1.12972 0
M  V30 3197 H 315.249 2.88173 -3.60214 0
M  V30 3198 H 313.492 2.65539 -3.43033 0
M  V30 3199 H 314.163 4.28854 -3.47546 0
M  V30 3200 H 316.639 3.8405 -1.60139 0
M  V30 3201 H 315.515 5.22053 -1.69564 0
M  V30 3202 H 315.776 4.41828 -0.154938 0
M  V30 3203 N 314.835 0.952656 1.25548 0
M  V30 3204 C 316.081 0.607272 1.93494 0
M  V30 3205 C 316.414 -0.853245 1.74452 0
M  V30 3206 O 315.689 -1.61194 1.08843 0
M  V30 3207 C 315.972 0.96435 3.46947 0
M  V30 3208 C 315.825 2.48045 3.75225 0
M  V30 3209 C 317.144 0.487987 4.37386 0
M  V30 3210 H 314.263 0.222096 0.702739 0
M  V30 3211 H 316.905 1.18895 1.48203 0
M  V30 3212 H 315.055 0.469361 3.85654 0
M  V30 3213 H 316.727 3.04905 3.46166 0
M  V30 3214 H 314.97 2.919 3.209 0
M  V30 3215 H 315.641 2.6808 4.82532 0
M  V30 3216 H 318.117 0.912558 4.0597 0
M  V30 3217 H 316.993 0.766547 5.43521 0
M  V30 3218 H 317.254 -0.612063 4.37843 0
M  V30 3219 N 316.313 -1.40141 0.720998 0
M  V30 3220 C 317.543 -2.04798 0.27226 0
M  V30 3221 C 317.951 -1.54442 -1.09289 0
M  V30 3222 O 317.294 -0.698342 -1.69908 0
M  V30 3223 C 317.356 -3.59048 0.18027 0
M  V30 3224 C 317.02 -4.32317 1.48159 0
M  V30 3225 C 318.017 -4.59902 2.42458 0
M  V30 3226 C 315.702 -4.71125 1.74202 0
M  V30 3227 C 317.696 -5.25288 3.61042 0
M  V30 3228 C 315.383 -5.36242 2.93066 0
M  V30 3229 C 316.381 -5.63254 3.86308 0
M  V30 3230 O 316.069 -6.27024 5.03086 0
M  V30 3231 H 315.801 -0.665419 0.119139 0
M  V30 3232 H 318.355 -1.80436 0.981432 0
M  V30 3233 H 316.585 -3.82251 -0.58489 0
M  V30 3234 H 318.274 -4.05221 -0.234618 0
M  V30 3235 H 319.04 -4.30379 2.23604 0
M  V30 3236 H 314.919 -4.49466 1.02477 0
M  V30 3237 H 318.463 -5.46289 4.33837 0
M  V30 3238 H 314.36 -5.65185 3.11826 0
M  V30 3239 H 315.128 -6.4552 5.03235 0
M  V30 3240 N 317.792 -0.46758 -1.50504 0
M  V30 3241 C 318.74 0.342482 -2.30065 0
M  V30 3242 C 319.734 0.993596 -1.37201 0
M  V30 3243 O 320.94 0.925102 -1.54408 0
M  V30 3244 H 317.315 0.129283 -0.740803 0
M  V30 3245 H 319.286 -0.34899 -2.96352 0
M  V30 3246 C 318.035 1.4139 -3.17654 0
M  V30 3247 H 317.358 0.922264 -3.89017 0
M  V30 3248 H 318.798 1.95335 -3.76325 0
M  V30 3249 C 317.257 2.4139 -2.35016 0
M  V30 3250 O 317.787 3.46586 -2.03079 0
M  V30 3251 N 315.993 2.13021 -1.97662 0
M  V30 3252 H 315.54 1.27499 -2.23834 0
M  V30 3253 H 315.498 2.80164 -1.42673 0
M  V30 3254 N 319.27 1.56325 -0.20005 0
M  V30 3255 C 320.22 2.15939 0.731743 0
M  V30 3256 C 321.204 1.10154 1.17281 0
M  V30 3257 O 322.396 1.36203 1.13038 0
M  V30 3258 C 319.525 2.82614 1.94895 0
M  V30 3259 C 318.611 3.95596 1.52855 0
M  V30 3260 N 319.002 4.99118 0.819418 0
M  V30 3261 C 317.3 4.07288 1.81748 0
M  V30 3262 C 318.001 5.78513 0.608053 0
M  V30 3263 N 316.977 5.31117 1.15828 0
M  V30 3264 H 320.779 2.9334 0.181285 0
M  V30 3265 H 318.293 1.624 -0.000452172 0
M  V30 3266 H 320.29 3.23718 2.62702 0
M  V30 3267 H 318.95 2.06702 2.50408 0
M  V30 3268 H 319.961 5.15723 0.47436 0
M  V30 3269 H 316.638 3.42509 2.38734 0
M  V30 3270 H 318.028 6.71885 0.0451619 0
M  V30 3271 N 320.748 -0.0735177 1.57428 0
M  V30 3272 C 321.995 -0.772999 1.87166 0
M  V30 3273 C 322.323 -1.77665 0.791551 0
M  V30 3274 O 321.578 -1.94541 -0.212636 0
M  V30 3275 C 321.877 -1.51799 3.23561 0
M  V30 3276 C 321.543 -0.654484 4.46125 0
M  V30 3277 C 320.205 -0.416511 4.79394 0
M  V30 3278 C 322.557 -0.0555862 5.2117 0
M  V30 3279 C 319.885 0.429869 5.85123 0
M  V30 3280 C 322.237 0.778239 6.27795 0
M  V30 3281 C 320.901 1.0261 6.59566 0
M  V30 3282 H 320.171 -0.282861 0.684888 0
M  V30 3283 H 322.818 -0.0338272 1.9147 0
M  V30 3284 H 321.123 -2.32932 3.1504 0
M  V30 3285 H 322.82 -2.06397 3.43804 0
M  V30 3286 H 319.41 -0.850091 4.20085 0
M  V30 3287 H 323.594 -0.226558 4.95783 0
M  V30 3288 H 318.85 0.630665 6.08139 0
M  V30 3289 H 323.024 1.24906 6.85107 0
M  V30 3290 H 320.651 1.68371 7.4132 0
M  V30 3291 N 322.226 -1.5378 -0.344866 0
M  V30 3292 C 323.474 -1.70625 -1.08311 0
M  V30 3293 C 323.795 -0.471447 -1.89215 0
M  V30 3294 O 323.065 0.514616 -1.8902 0
M  V30 3295 H 321.645 -0.629058 -0.402859 0
M  V30 3296 H 324.307 -1.9103 -0.386459 0
M  V30 3297 H 323.403 -2.57656 -1.76124 0
M  V30 3298 N 323.704 0.605807 -1.45491 0
M  V30 3299 C 325.115 1.18777 -1.44045 0
M  V30 3300 C 325.466 1.95471 -0.169001 0
M  V30 3301 O 324.591 2.0374 0.729324 0
M  V30 3302 C 325.186 2.16064 -2.60963 0
M  V30 3303 C 323.745 2.69633 -2.62631 0
M  V30 3304 C 322.892 1.45072 -2.36325 0
M  V30 3305 H 325.843 0.395017 -1.53705 0
M  V30 3306 H 325.864 2.9913 -2.35163 0
M  V30 3307 H 325.376 1.60217 -3.53486 0
M  V30 3308 H 323.477 3.29414 -1.74119 0
M  V30 3309 H 323.59 3.13944 -3.61906 0
M  V30 3310 H 321.954 1.74089 -1.85917 0
M  V30 3311 H 322.737 0.910899 -3.30995 0
M  V30 3312 N 325.182 1.32811 0.848464 0
M  V30 3313 C 326.407 1.26882 1.6406 0
M  V30 3314 C 326.832 -0.15913 1.87426 0
M  V30 3315 O 326.19 -1.11258 1.43148 0
M  V30 3316 C 326.238 2.03997 2.97351 0
M  V30 3317 O 325.342 1.39201 3.88197 0
M  V30 3318 H 324.683 0.436982 0.499943 0
M  V30 3319 H 327.213 1.75224 1.0563 0
M  V30 3320 H 327.223 2.14403 3.47124 0
M  V30 3321 H 325.898 3.0783 2.79666 0
M  V30 3322 H 324.475 1.37381 3.46671 0
M  V30 3323 N 326.66 -1.06551 1.16123 0
M  V30 3324 C 327.908 -1.78947 0.939267 0
M  V30 3325 C 328.229 -1.87532 -0.534476 0
M  V30 3326 O 327.499 -1.38211 -1.38833 0
M  V30 3327 H 326.079 -0.662807 0.344523 0
M  V30 3328 H 328.741 -1.28725 1.46342 0
M  V30 3329 H 327.837 -2.81117 1.35572 0
M  V30 3330 N 328.138 -0.959301 -1.25041 0
M  V30 3331 C 329.086 -0.474437 -2.2771 0
M  V30 3332 C 330.08 0.457697 -1.631 0
M  V30 3333 O 331.286 0.333912 -1.76876 0
M  V30 3334 H 327.661 -0.134936 -0.739795 0
M  V30 3335 H 329.632 -1.35251 -2.65988 0
M  V30 3336 C 328.381 0.227884 -3.46952 0
M  V30 3337 H 327.704 -0.480248 -3.96905 0
M  V30 3338 H 329.144 0.531091 -4.20661 0
M  V30 3339 C 327.603 1.452 -3.04004 0
M  V30 3340 O 328.133 2.54949 -3.10426 0
M  V30 3341 N 326.339 1.31502 -2.59144 0
M  V30 3342 H 325.886 0.422065 -2.54119 0
M  V30 3343 H 325.844 2.13521 -2.30773 0
M  V30 3344 N 329.616 1.39756 -0.72842 0
M  V30 3345 C 330.846 2.04651 -0.283117 0
M  V30 3346 C 331.254 1.5502 1.08469 0
M  V30 3347 O 330.597 0.707343 1.69536 0
M  V30 3348 C 330.659 3.58947 -0.199309 0
M  V30 3349 C 330.323 4.31525 -1.5045 0
M  V30 3350 C 331.32 4.5861 -2.44894 0
M  V30 3351 C 329.005 4.70195 -1.76698 0
M  V30 3352 C 330.999 5.23366 -3.63822 0
M  V30 3353 C 328.686 5.3468 -2.95906 0
M  V30 3354 C 329.684 5.61198 -3.89289 0
M  V30 3355 O 329.372 6.24347 -5.06404 0
M  V30 3356 H 329.104 0.664777 -0.122666 0
M  V30 3357 H 331.658 1.79913 -0.990987 0
M  V30 3358 H 329.888 3.82556 0.56461 0
M  V30 3359 H 331.577 4.0534 0.213125 0
M  V30 3360 H 332.343 4.29187 -2.25883 0
M  V30 3361 H 328.222 4.48916 -1.04859 0
M  V30 3362 H 331.766 5.4398 -4.36728 0
M  V30 3363 H 327.663 5.63524 -3.14819 0
M  V30 3364 H 328.431 6.42842 -5.06652 0
M  V30 3365 N 331.094 0.475555 1.50254 0
M  V30 3366 C 332.024 -0.30611 2.31485 0
M  V30 3367 C 333.005 -0.986228 1.38591 0
M  V30 3368 O 334.19 -0.982541 1.67511 0
M  V30 3369 C 331.32 -1.38588 3.1845 0
M  V30 3370 C 330.274 -0.827115 4.19932 0
M  V30 3371 C 329.6 -2.00551 4.95665 0
M  V30 3372 C 330.9 0.16463 5.2204 0
M  V30 3373 H 332.594 0.371866 2.97082 0
M  V30 3374 H 330.14 0.180282 1.42867 0
M  V30 3375 H 332.093 -1.94023 3.74076 0
M  V30 3376 H 330.817 -2.09269 2.50747 0
M  V30 3377 H 329.476 -0.294702 3.65414 0
M  V30 3378 H 329.124 -2.6994 4.2443 0
M  V30 3379 H 328.824 -1.63784 5.64313 0
M  V30 3380 H 330.348 -2.56468 5.54127 0
M  V30 3381 H 331.762 -0.300699 5.72511 0
M  V30 3382 H 330.159 0.446813 5.98434 0
M  V30 3383 H 331.229 1.08905 4.72512 0
M  V30 3384 N 332.573 -1.56217 0.208337 0
M  V30 3385 C 333.798 -2.02782 -0.435222 0
M  V30 3386 C 334.223 -1.08738 -1.53485 0
M  V30 3387 O 333.581 -0.0731855 -1.81152 0
M  V30 3388 C 333.629 -3.47687 -0.956335 0
M  V30 3389 O 332.733 -3.56773 -2.06849 0
M  V30 3390 H 332.074 -0.656403 -0.100158 0
M  V30 3391 H 334.604 -2.02033 0.3231 0
M  V30 3392 H 334.614 -3.87745 -1.26955 0
M  V30 3393 H 333.289 -4.15624 -0.15143 0
M  V30 3394 H 331.866 -3.28597 -1.76292 0
M  V30 3395 N 334.051 0.0651679 -1.57465 0
M  V30 3396 C 335.276 0.779605 -1.9219 0
M  V30 3397 C 335.701 1.69988 -0.805333 0
M  V30 3398 O 335.059 1.79685 0.241435 0
M  V30 3399 C 335.107 1.54364 -3.2589 0
M  V30 3400 O 334.211 2.65474 -3.1559 0
M  V30 3401 H 333.552 0.212249 -0.629163 0
M  V30 3402 H 336.082 0.0314294 -2.04576 0
M  V30 3403 H 336.092 1.92146 -3.59922 0
M  V30 3404 H 334.767 0.868457 -4.06732 0
M  V30 3405 H 333.344 2.30501 -2.93128 0
M  V30 3406 N 335.529 1.53961 0.336706 0
M  V30 3407 C 336.759 1.75229 1.09446 0
M  V30 3408 C 337.167 0.494602 1.82621 0
M  V30 3409 O 336.51 -0.543764 1.75468 0
M  V30 3410 C 336.572 2.88288 2.1478 0
M  V30 3411 C 336.236 4.27656 1.6112 0
M  V30 3412 C 337.233 5.08981 1.0599 0
M  V30 3413 C 334.918 4.74161 1.6576 0
M  V30 3414 C 336.912 6.34916 0.562129 0
M  V30 3415 C 334.599 6.00067 1.15595 0
M  V30 3416 C 335.597 6.80278 0.609147 0
M  V30 3417 O 335.285 8.03818 0.114999 0
M  V30 3418 H 335.017 0.588881 0.331956 0
M  V30 3419 H 337.571 2.01614 0.392566 0
M  V30 3420 H 335.801 2.57443 2.88548 0
M  V30 3421 H 337.49 2.97461 2.76174 0
M  V30 3422 H 338.256 4.74213 1.01722 0
M  V30 3423 H 334.135 4.11781 2.07261 0
M  V30 3424 H 337.679 6.9747 0.134668 0
M  V30 3425 H 333.576 6.3433 1.19566 0
M  V30 3426 H 334.344 8.18172 0.231651 0
M  V30 3427 N 337.007 -0.598083 1.45811 0
M  V30 3428 C 337.97 -1.69018 1.54808 0
M  V30 3429 C 338.97 -1.55037 0.426652 0
M  V30 3430 O 340.16 -1.59932 0.690456 0
M  V30 3431 C 337.292 -3.0835 1.45371 0
M  V30 3432 H 338.485 -1.62403 2.52121 0
M  V30 3433 H 336.038 -0.814626 1.33392 0
M  V30 3434 H 336.773 -3.20534 0.492793 0
M  V30 3435 H 336.558 -3.19907 2.26721 0
M  V30 3436 H 338.048 -3.8788 1.54721 0
M  V30 3437 N 338.485 -1.33259 -0.841409 0
M  V30 3438 C 339.896 -1.22066 -1.41269 0
M  V30 3439 C 340.247 0.161479 -1.95534 0
M  V30 3440 O 339.372 1.06094 -1.88608 0
M  V30 3441 C 339.967 -2.20996 -2.568 0
M  V30 3442 C 338.526 -2.13649 -3.09888 0
M  V30 3443 C 337.673 -2.08623 -1.82679 0
M  V30 3444 H 340.624 -1.44895 -0.647395 0
M  V30 3445 H 340.645 -1.81621 -3.34356 0
M  V30 3446 H 340.157 -3.2158 -2.17274 0
M  V30 3447 H 338.258 -1.16359 -3.53965 0
M  V30 3448 H 338.371 -3.04079 -3.70234 0
M  V30 3449 H 336.735 -1.54061 -2.02824 0
M  V30 3450 H 337.518 -3.1101 -1.45353 0
M  V30 3451 N 339.963 1.05934 -1.16686 0
M  V30 3452 C 341.188 1.83029 -0.975455 0
M  V30 3453 C 341.613 1.82096 0.471452 0
M  V30 3454 O 340.971 1.22443 1.33706 0
M  V30 3455 C 341.019 3.27372 -1.51195 0
M  V30 3456 O 340.123 4.06054 -0.720701 0
M  V30 3457 H 339.464 0.566194 -0.346872 0
M  V30 3458 H 341.994 1.33541 -1.55009 0
M  V30 3459 H 342.004 3.78186 -1.53099 0
M  V30 3460 H 340.679 3.27366 -2.56523 0
M  V30 3461 H 339.256 3.64812 -0.772458 0
M  V30 3462 N 341.441 0.965919 1.2453 0
M  V30 3463 C 342.671 0.643451 1.96324 0
M  V30 3464 C 343.079 -0.790927 1.71875 0
M  V30 3465 O 342.422 -1.54208 0.998273 0
M  V30 3466 C 342.484 0.836078 3.49643 0
M  V30 3467 C 342.148 2.24975 3.97788 0
M  V30 3468 C 343.145 3.22735 4.07601 0
M  V30 3469 C 340.83 2.57697 4.31158 0
M  V30 3470 C 342.824 4.51303 4.50116 0
M  V30 3471 C 340.511 3.86492 4.73357 0
M  V30 3472 C 341.509 4.83107 4.828 0
M  V30 3473 O 341.197 6.09605 5.24058 0
M  V30 3474 H 340.929 0.239223 0.632257 0
M  V30 3475 H 343.483 1.29587 1.59362 0
M  V30 3476 H 341.713 0.12649 3.86493 0
M  V30 3477 H 343.402 0.512965 4.02646 0
M  V30 3478 H 344.168 2.98783 3.82039 0
M  V30 3479 H 340.047 1.83216 4.23028 0
M  V30 3480 H 343.591 5.26716 4.57401 0
M  V30 3481 H 339.488 4.10245 4.98366 0
M  V30 3482 H 340.256 6.13146 5.42213 0
M  V30 3483 N 342.919 -1.39368 0.735821 0
M  V30 3484 C 344.166 -2.00497 0.284123 0
M  V30 3485 C 344.494 -1.58387 -1.12889 0
M  V30 3486 O 343.749 -0.804359 -1.78406 0
M  V30 3487 C 344.048 -3.5583 0.334651 0
M  V30 3488 C 343.714 -4.17593 1.7008 0
M  V30 3489 C 342.376 -4.34176 2.07472 0
M  V30 3490 C 344.728 -4.51848 2.59775 0
M  V30 3491 C 342.056 -4.82304 3.34065 0
M  V30 3492 C 344.408 -5.01384 3.85741 0
M  V30 3493 C 343.072 -5.16175 4.23225 0
M  V30 3494 H 342.342 -0.73367 0.103968 0
M  V30 3495 H 344.989 -1.66683 0.942825 0
M  V30 3496 H 343.294 -3.89674 -0.407625 0
M  V30 3497 H 344.991 -4.00986 -0.0329927 0
M  V30 3498 H 341.581 -4.05087 1.40008 0
M  V30 3499 H 345.765 -4.38653 2.32157 0
M  V30 3500 H 341.021 -4.91941 3.63049 0
M  V30 3501 H 345.195 -5.26863 4.55399 0
M  V30 3502 H 342.822 -5.5323 5.21384 0
M  V30 3503 N 344.397 -0.483516 -1.5 0
M  V30 3504 C 345.625 0.0644831 -2.06799 0
M  V30 3505 C 346.04 1.32399 -1.34596 0
M  V30 3506 O 345.397 1.77626 -0.418946 0
M  V30 3507 C 345.448 0.339927 -3.59898 0
M  V30 3508 O 345.169 -0.869635 -4.29382 0
M  V30 3509 C 346.67 0.933515 -4.33359 0
M  V30 3510 H 343.89 -0.0126333 -0.670881 0
M  V30 3511 H 346.434 -0.675864 -1.93009 0
M  V30 3512 H 344.589 1.03022 -3.7345 0
M  V30 3513 H 345.003 -0.62179 -5.20801 0
M  V30 3514 H 346.477 1.07593 -5.41413 0
M  V30 3515 H 346.954 1.92685 -3.94676 0
M  V30 3516 H 347.56 0.281221 -4.24369 0
M  V30 3517 N 345.875 1.56104 -0.216619 0
M  V30 3518 C 347.152 1.89988 0.465165 0
M  V30 3519 C 347.532 1.13326 1.78102 0
M  V30 3520 O 346.88 0.241033 2.27225 0
M  V30 3521 C 347.09 3.42646 0.662939 0
M  V30 3522 C 348.438 4.13311 0.972602 0
M  V30 3523 O 349.462 3.48217 0.749901 0
M  V30 3524 O 348.321 5.28396 1.39499 0
M  V30 3525 H 345.415 0.78979 0.245276 0
M  V30 3526 H 347.961 1.67721 -0.258436 0
M  V30 3527 H 346.733 3.90399 -0.26543 0
M  V30 3528 H 346.356 3.70677 1.43821 0
M  V30 3529 N 347.353 -0.0568162 1.57498 0
M  V30 3530 C 348.769 -0.411933 1.54192 0
M  V30 3531 C 348.969 -1.78287 0.938942 0
M  V30 3532 O 348.025 -2.46483 0.547919 0
M  V30 3533 C 349.338 -0.339244 2.9878 0
M  V30 3534 C 350.886 -0.418348 3.10192 0
M  V30 3535 C 351.361 -0.375407 4.56459 0
M  V30 3536 N 352.852 -0.435038 4.61153 0
M  V30 3537 C 353.587 -0.424265 5.71828 0
M  V30 3538 N 353.083 -0.367418 6.91825 0
M  V30 3539 N 354.876 -0.471938 5.60115 0
M  V30 3540 H 347.027 0.840684 1.95055 0
M  V30 3541 H 349.29 0.316987 0.893433 0
M  V30 3542 H 348.996 0.601742 3.46514 0
M  V30 3543 H 348.87 -1.14371 3.59443 0
M  V30 3544 H 351.257 -1.34976 2.62422 0
M  V30 3545 H 351.338 0.414962 2.52412 0
M  V30 3546 H 350.982 0.552219 5.04889 0
M  V30 3547 H 350.912 -1.22645 5.12119 0
M  V30 3548 H 353.403 -0.482612 3.74806 0
M  V30 3549 H 353.716 -0.363535 7.71944 0
M  V30 3550 H 352.061 -0.333879 6.94198 0
M  V30 3551 H 355.252 -0.514145 4.65268 0
M  V30 3552 H 355.425 -0.460073 6.46365 0
M  V30 3553 N 348.832 -1.54138 -0.328536 0
M  V30 3554 C 350.079 -1.72105 -1.06706 0
M  V30 3555 C 350.407 -0.492111 -1.88171 0
M  V30 3556 O 349.662 0.526153 -1.88494 0
M  V30 3557 C 349.961 -2.9457 -2.02393 0
M  V30 3558 C 349.627 -4.29544 -1.37122 0
M  V30 3559 C 348.289 -4.6624 -1.19052 0
M  V30 3560 C 350.641 -5.1333 -0.902331 0
M  V30 3561 C 347.969 -5.84325 -0.527331 0
M  V30 3562 C 350.321 -6.32094 -0.252988 0
M  V30 3563 C 348.985 -6.67473 -0.0600901 0
M  V30 3564 H 348.255 -0.629775 -0.390466 0
M  V30 3565 H 350.902 -1.88372 -0.34473 0
M  V30 3566 H 349.207 -2.72969 -2.81061 0
M  V30 3567 H 350.904 -3.05665 -2.59557 0
M  V30 3568 H 347.494 -4.0067 -1.52188 0
M  V30 3569 H 351.678 -4.855 -1.02974 0
M  V30 3570 H 346.934 -6.103 -0.366634 0
M  V30 3571 H 351.108 -6.96299 0.118366 0
M  V30 3572 H 348.735 -7.58832 0.455828 0
M  V30 3573 N 350.31 0.590341 -1.46126 0
M  V30 3574 C 351.535 1.37991 -1.54833 0
M  V30 3575 C 351.96 1.87163 -0.187506 0
M  V30 3576 O 351.318 1.61133 0.831008 0
M  V30 3577 C 351.366 2.54867 -2.55098 0
M  V30 3578 O 350.47 3.56061 -2.08073 0
M  V30 3579 H 349.811 0.411265 -0.521303 0
M  V30 3580 H 352.341 0.716819 -1.91632 0
M  V30 3581 H 352.351 3.01886 -2.74461 0
M  V30 3582 H 351.026 2.18429 -3.53923 0
M  V30 3583 H 349.603 3.15574 -1.98664 0
M  V30 3584 N 351.788 1.33704 0.83433 0
M  V30 3585 C 353.013 1.28615 1.62705 0
M  V30 3586 C 353.438 -0.139242 1.87584 0
M  V30 3587 O 352.796 -1.09734 1.4432 0
M  V30 3588 C 352.844 2.07139 2.95171 0
M  V30 3589 O 351.948 1.4331 3.86699 0
M  V30 3590 H 351.289 0.44226 0.49528 0
M  V30 3591 H 353.819 1.76335 1.03766 0
M  V30 3592 H 353.829 2.18073 3.44831 0
M  V30 3593 H 352.504 3.10779 2.76386 0
M  V30 3594 H 351.081 1.4105 3.45195 0
M  V30 3595 N 353.266 -1.05314 1.17247 0
M  V30 3596 C 354.229 -2.112 0.890357 0
M  V30 3597 C 355.229 -1.60359 -0.118943 0
M  V30 3598 O 356.419 -1.73833 0.113086 0
M  V30 3599 C 353.551 -3.39266 0.333422 0
M  V30 3600 H 354.744 -2.37659 1.82916 0
M  V30 3601 H 352.297 -1.21538 0.982758 0
M  V30 3602 H 353.032 -3.18462 -0.612587 0
M  V30 3603 H 352.817 -3.77477 1.06082 0
M  V30 3604 H 354.307 -4.17315 0.154322 0
M  V30 3605 N 354.744 -0.972509 -1.24016 0
M  V30 3606 C 355.99 -0.647583 -1.92816 0
M  V30 3607 C 356.345 0.809015 -1.74564 0
M  V30 3608 O 355.638 1.57502 -1.09103 0
M  V30 3609 C 355.832 -0.963694 -3.44162 0
M  V30 3610 C 355.661 -2.44947 -3.77135 0
M  V30 3611 C 354.431 -3.11012 -3.98246 0
M  V30 3612 C 356.629 -3.42978 -3.83237 0
M  V30 3613 N 354.611 -4.49277 -4.18358 0
M  V30 3614 C 355.982 -4.66619 -4.08248 0
M  V30 3615 C 358.037 -3.37569 -3.65994 0
M  V30 3616 C 356.74 -5.85516 -4.17808 0
M  V30 3617 C 358.766 -4.55822 -3.76802 0
M  V30 3618 C 358.128 -5.78256 -4.02243 0
M  V30 3619 H 354.227 -0.287894 -0.727077 0
M  V30 3620 H 356.811 -1.24835 -1.49413 0
M  V30 3621 H 354.982 -0.391692 -3.8642 0
M  V30 3622 H 356.714 -0.596849 -4.00275 0
M  V30 3623 H 353.469 -2.61529 -3.94841 0
M  V30 3624 H 353.893 -5.20935 -4.32384 0
M  V30 3625 H 358.535 -2.43945 -3.45327 0
M  V30 3626 H 356.253 -6.79564 -4.37285 0
M  V30 3627 H 359.839 -4.53204 -3.64825 0
M  V30 3628 H 358.719 -6.68231 -4.10411 0
M  V30 3629 N 356.222 1.38976 -0.743202 0
M  V30 3630 C 357.47 1.99948 -0.29417 0
M  V30 3631 C 357.791 1.59279 1.12495 0
M  V30 3632 O 357.061 0.844808 1.76748 0
M  V30 3633 H 355.641 0.739473 -0.105774 0
M  V30 3634 H 358.303 1.699 -0.954986 0
M  V30 3635 H 357.399 3.10142 -0.349056 0
M  V30 3636 N 357.7 0.491464 1.49741 0
M  V30 3637 C 358.633 -0.338464 2.25676 0
M  V30 3638 C 359.611 -0.978676 1.29849 0
M  V30 3639 O 360.795 -1.01064 1.59117 0
M  V30 3640 C 357.922 -1.47588 3.04853 0
M  V30 3641 C 356.968 -0.951 4.15762 0
M  V30 3642 S 357.801 0.150626 5.35288 0
M  V30 3643 C 358.957 -0.990178 6.18018 0
M  V30 3644 H 359.19 0.306068 2.9572 0
M  V30 3645 H 356.723 0.276622 1.51902 0
M  V30 3646 H 358.681 -2.12764 3.51058 0
M  V30 3647 H 357.342 -2.09199 2.34296 0
M  V30 3648 H 356.535 -1.80311 4.70642 0
M  V30 3649 H 356.137 -0.376607 3.72099 0
M  V30 3650 H 358.429 -1.89748 6.50386 0
M  V30 3651 H 359.372 -0.480205 7.0647 0
M  V30 3652 H 359.78 -1.25321 5.50413 0
M  V30 3653 N 359.178 -1.55987 0.224894 0
M  V30 3654 C 360.426 -1.97998 -0.405099 0
M  V30 3655 C 360.747 -1.11387 -1.60056 0
M  V30 3656 O 360.017 -0.191645 -1.9496 0
M  V30 3657 H 358.597 -0.731235 -0.152658 0
M  V30 3658 H 361.259 -1.92279 0.318567 0
M  V30 3659 H 360.355 -3.03463 -0.729167 0
M  V30 3660 N 360.656 0.0484629 -1.57525 0
M  V30 3661 C 361.586 1.0549 -2.08313 0
M  V30 3662 C 362.567 1.38929 -0.981463 0
M  V30 3663 O 363.752 1.48151 -1.25558 0
M  V30 3664 C 360.882 2.36162 -2.54646 0
M  V30 3665 C 359.836 2.17016 -3.68901 0
M  V30 3666 C 359.162 3.53278 -4.01371 0
M  V30 3667 C 360.462 1.57219 -4.98076 0
M  V30 3668 H 362.156 0.632195 -2.92649 0
M  V30 3669 H 359.702 0.302654 -1.40784 0
M  V30 3670 H 361.655 3.06882 -2.88793 0
M  V30 3671 H 360.379 2.80456 -1.67368 0
M  V30 3672 H 359.038 1.48733 -3.35073 0
M  V30 3673 H 358.686 3.95185 -3.11188 0
M  V30 3674 H 358.386 3.41299 -4.78318 0
M  V30 3675 H 359.91 4.25391 -4.38035 0
M  V30 3676 H 361.324 2.17832 -5.30304 0
M  V30 3677 H 359.721 1.55871 -5.79503 0
M  V30 3678 H 360.791 0.535956 -4.81929 0
M  V30 3679 N 362.134 1.5431 0.320358 0
M  V30 3680 C 363.411 1.63322 1.07635 0
M  V30 3681 C 363.791 0.46912 2.05821 0
M  V30 3682 O 363.139 -0.536274 2.22118 0
M  V30 3683 C 363.349 3.00465 1.77544 0
M  V30 3684 C 364.697 3.56621 2.30449 0
M  V30 3685 O 365.721 3.02791 1.87606 0
M  V30 3686 O 364.58 4.5083 3.08892 0
M  V30 3687 H 361.674 0.661502 0.496331 0
M  V30 3688 H 364.22 1.66656 0.319992 0
M  V30 3689 H 362.992 3.76629 1.06143 0
M  V30 3690 H 362.615 3.00824 2.59982 0
M  V30 3691 N 363.613 -0.582584 1.46437 0
M  V30 3692 C 364.843 -1.36484 1.55099 0
M  V30 3693 C 365.251 -1.88233 0.191056 0
M  V30 3694 O 364.594 -1.6429 -0.821858 0
M  V30 3695 C 364.656 -2.588 2.49525 0
M  V30 3696 C 364.32 -2.28517 3.95764 0
M  V30 3697 C 365.317 -1.87346 4.84972 0
M  V30 3698 C 363.002 -2.40658 4.40896 0
M  V30 3699 C 364.996 -1.5871 6.17325 0
M  V30 3700 C 362.683 -2.11635 5.73284 0
M  V30 3701 C 363.681 -1.70725 6.61318 0
M  V30 3702 O 363.369 -1.42057 7.91249 0
M  V30 3703 H 363.101 -0.423297 0.527063 0
M  V30 3704 H 365.655 -0.715188 1.92547 0
M  V30 3705 H 363.885 -3.26571 2.07095 0
M  V30 3706 H 365.574 -3.20868 2.48593 0
M  V30 3707 H 366.34 -1.77481 4.5136 0
M  V30 3708 H 362.219 -2.71463 3.72598 0
M  V30 3709 H 365.763 -1.26704 6.85997 0
M  V30 3710 H 361.66 -2.21124 6.06444 0
M  V30 3711 H 362.428 -1.55901 8.03515 0
M  V30 3712 N 365.091 -1.34144 -0.827227 0
M  V30 3713 C 366.054 -1.25264 -1.91942 0
M  V30 3714 C 367.054 -0.168866 -1.59911 0
M  V30 3715 O 368.244 -0.421198 -1.69031 0
M  V30 3716 C 365.376 -0.932952 -3.27885 0
M  V30 3717 H 366.569 -2.22357 -2.0124 0
M  V30 3718 H 364.122 -1.1837 -1.0207 0
M  V30 3719 H 364.857 0.0349917 -3.24281 0
M  V30 3720 H 364.642 -1.71682 -3.52516 0
M  V30 3721 H 366.132 -0.895874 -4.07877 0
M  V30 3722 N 366.569 1.04691 -1.17803 0
M  V30 3723 C 367.479 2.16057 -0.914151 0
M  V30 3724 C 368.495 1.73589 0.119503 0
M  V30 3725 O 369.671 2.01308 -0.0609468 0
M  V30 3726 C 366.736 3.4394 -0.436603 0
M  V30 3727 C 365.797 4.00825 -1.53746 0
M  V30 3728 C 365.03 5.22604 -1.0826 0
M  V30 3729 O 365.253 5.70367 0.0612244 0
M  V30 3730 O 364.187 5.7186 -1.87775 0
M  V30 3731 H 368.013 2.41169 -1.84584 0
M  V30 3732 H 365.598 1.1453 -0.959334 0
M  V30 3733 H 367.48 4.21024 -0.178057 0
M  V30 3734 H 366.155 3.20316 0.466869 0
M  V30 3735 H 365.062 3.25158 -1.84995 0
M  V30 3736 H 366.395 4.28778 -2.41683 0
M  V30 3737 N 368.047 0.979072 1.23499 0
M  V30 3738 C 369.458 0.684391 1.73704 0
M  V30 3739 C 369.809 -0.799448 1.79174 0
M  V30 3740 O 368.934 -1.62531 1.42873 0
M  V30 3741 C 369.529 1.23564 3.15464 0
M  V30 3742 C 368.088 0.99063 3.6313 0
M  V30 3743 C 367.235 1.36416 2.41425 0
M  V30 3744 H 370.186 1.15307 1.09041 0
M  V30 3745 H 370.207 0.607417 3.7562 0
M  V30 3746 H 369.719 2.31561 3.1145 0
M  V30 3747 H 367.82 -0.0733136 3.72528 0
M  V30 3748 H 367.933 1.64427 4.5 0
M  V30 3749 H 366.297 0.782616 2.42378 0
M  V30 3750 H 367.08 2.45387 2.40083 0
M  V30 3751 N 369.525 -1.3858 0.750561 0
M  V30 3752 C 370.475 -2.27795 0.0965949 0
M  V30 3753 C 371.459 -1.45048 -0.696411 0
M  V30 3754 O 372.651 -1.67812 -0.562863 0
M  V30 3755 C 369.78 -3.33894 -0.798085 0
M  V30 3756 C 368.866 -4.241 0.0016067 0
M  V30 3757 N 369.257 -4.95067 1.03647 0
M  V30 3758 C 367.555 -4.45429 -0.225674 0
M  V30 3759 C 368.256 -5.61489 1.52004 0
M  V30 3760 N 367.232 -5.37135 0.835874 0
M  V30 3761 H 371.034 -2.80125 0.889228 0
M  V30 3762 H 368.548 -1.51446 0.586323 0
M  V30 3763 H 370.545 -3.96693 -1.28219 0
M  V30 3764 H 369.205 -2.83123 -1.5897 0
M  V30 3765 H 370.216 -4.98104 1.41819 0
M  V30 3766 H 366.893 -4.05571 -0.990872 0
M  V30 3767 H 368.283 -6.28264 2.38188 0
M  V30 3768 N 371.003 -0.499398 -1.49478 0
M  V30 3769 C 371.936 0.326491 -2.25852 0
M  V30 3770 C 372.914 0.971776 -1.30366 0
M  V30 3771 O 374.098 1.00219 -1.59651 0
M  V30 3772 C 371.225 1.45969 -3.05632 0
M  V30 3773 C 370.271 0.928938 -4.16261 0
M  V30 3774 S 371.104 -0.179012 -5.35201 0
M  V30 3775 C 372.26 0.957389 -6.18534 0
M  V30 3776 H 372.493 -0.321746 -2.95554 0
M  V30 3777 H 370.026 -0.284674 -1.51753 0
M  V30 3778 H 371.984 2.109 -3.52181 0
M  V30 3779 H 370.645 2.07953 -2.35402 0
M  V30 3780 H 369.838 1.77813 -4.71592 0
M  V30 3781 H 369.44 0.356869 -3.72293 0
M  V30 3782 H 371.732 1.86296 -6.51383 0
M  V30 3783 H 372.675 0.442733 -7.06715 0
M  V30 3784 H 373.083 1.224 -5.5107 0
M  V30 3785 N 372.481 1.55866 -0.233164 0
M  V30 3786 C 373.897 1.59133 0.121988 0
M  V30 3787 C 374.097 1.25016 1.58029 0
M  V30 3788 O 373.153 0.990922 2.32243 0
M  V30 3789 C 374.466 2.99932 -0.214792 0
M  V30 3790 C 376.014 3.12601 -0.157971 0
M  V30 3791 C 376.489 4.55597 -0.46859 0
M  V30 3792 N 377.98 4.61305 -0.418585 0
M  V30 3793 C 378.715 5.69903 -0.63227 0
M  V30 3794 N 378.211 6.86819 -0.90835 0
M  V30 3795 N 380.004 5.59264 -0.563913 0
M  V30 3796 H 372.155 1.76315 -1.18434 0
M  V30 3797 H 374.418 0.820093 -0.475553 0
M  V30 3798 H 374.124 3.29588 -1.22739 0
M  V30 3799 H 373.998 3.74327 0.464691 0
M  V30 3800 H 376.385 2.82735 0.845283 0
M  V30 3801 H 376.466 2.40511 -0.871102 0
M  V30 3802 H 376.11 4.86182 -1.46934 0
M  V30 3803 H 376.04 5.25928 0.265865 0
M  V30 3804 H 378.531 3.77297 -0.213368 0
M  V30 3805 H 378.844 7.65507 -1.05919 0
M  V30 3806 H 377.189 6.88536 -0.945673 0
M  V30 3807 H 380.38 4.66802 -0.348372 0
M  V30 3808 H 380.553 6.43831 -0.733847 0
M  V30 3809 N 373.959 -0.0401083 1.57549 0
M  V30 3810 C 375.375 -0.395556 1.54621 0
M  V30 3811 C 375.575 -1.77281 0.957799 0
M  V30 3812 O 374.631 -2.45888 0.574031 0
M  V30 3813 C 375.944 -0.307535 2.99123 0
M  V30 3814 C 377.492 -0.385425 3.10618 0
M  V30 3815 C 377.967 -0.326973 4.56831 0
M  V30 3816 N 379.458 -0.386102 4.61588 0
M  V30 3817 C 380.193 -0.363591 5.72246 0
M  V30 3818 N 379.689 -0.29402 6.92176 0
M  V30 3819 N 381.482 -0.412503 5.60584 0
M  V30 3820 H 373.633 0.861325 1.94152 0
M  V30 3821 H 375.896 0.326445 0.890021 0
M  V30 3822 H 375.602 0.638461 3.45856 0
M  V30 3823 H 375.476 -1.10552 3.60636 0
M  V30 3824 H 377.863 -1.32185 2.63839 0
M  V30 3825 H 377.944 0.44171 2.51957 0
M  V30 3826 H 377.588 0.605738 5.04275 0
M  V30 3827 H 377.518 -1.17207 5.13391 0
M  V30 3828 H 380.009 -0.442832 3.75296 0
M  V30 3829 H 380.322 -0.28164 7.72287 0
M  V30 3830 H 378.667 -0.260232 6.94513 0
M  V30 3831 H 381.858 -0.464769 4.65787 0
M  V30 3832 H 382.031 -0.391492 6.46816 0
M  V30 3833 N 375.437 -1.54477 -0.31217 0
M  V30 3834 C 376.667 -1.76948 -1.06645 0
M  V30 3835 C 377.075 -0.523593 -1.81811 0
M  V30 3836 O 376.418 0.51578 -1.76311 0
M  V30 3837 C 376.48 -2.91668 -2.10166 0
M  V30 3838 C 376.144 -4.30165 -1.54296 0
M  V30 3839 C 377.141 -5.10603 -0.978793 0
M  V30 3840 C 374.826 -4.76738 -1.58196 0
M  V30 3841 C 376.82 -6.3573 -0.461048 0
M  V30 3842 C 374.507 -6.01831 -1.06034 0
M  V30 3843 C 375.505 -6.81161 -0.500844 0
M  V30 3844 O 375.193 -8.03899 0.0128958 0
M  V30 3845 H 374.925 -0.594088 -0.322546 0
M  V30 3846 H 377.479 -2.02213 -0.360441 0
M  V30 3847 H 375.709 -2.62001 -2.84416 0
M  V30 3848 H 377.398 -3.01817 -2.71406 0
M  V30 3849 H 378.164 -4.75771 -0.941651 0
M  V30 3850 H 374.043 -4.15027 -2.00683 0
M  V30 3851 H 377.587 -6.97596 -0.0236894 0
M  V30 3852 H 373.484 -6.36152 -1.09459 0
M  V30 3853 H 374.252 -8.18437 -0.101457 0
M  V30 3854 N 376.915 0.57481 -1.46744 0
M  V30 3855 C 378.161 1.3347 -1.52688 0
M  V30 3856 C 378.494 1.93353 -0.181229 0
M  V30 3857 O 377.769 1.76912 0.808237 0
M  V30 3858 C 378.052 2.45811 -2.63152 0
M  V30 3859 C 377.905 1.90912 -4.07275 0
M  V30 3860 C 379.224 3.47822 -2.69644 0
M  V30 3861 H 376.343 0.483935 -0.555856 0
M  V30 3862 H 378.985 0.644968 -1.78718 0
M  V30 3863 H 377.135 3.04646 -2.41088 0
M  V30 3864 H 378.807 1.36473 -4.4065 0
M  V30 3865 H 377.05 1.21691 -4.16382 0
M  V30 3866 H 377.721 2.72042 -4.80309 0
M  V30 3867 H 380.197 2.9888 -2.895 0
M  V30 3868 H 379.073 4.23876 -3.48742 0
M  V30 3869 H 379.334 4.05555 -1.76005 0
M  V30 3870 N 378.394 1.34581 0.820102 0
M  V30 3871 C 379.622 1.3018 1.60813 0
M  V30 3872 C 380.037 -0.123551 1.88395 0
M  V30 3873 O 379.394 -1.07148 1.47735 0
M  V30 3874 C 379.445 2.09312 2.94739 0
M  V30 3875 O 379.166 3.46288 2.68358 0
M  V30 3876 C 380.667 2.1234 3.89136 0
M  V30 3877 H 377.887 0.447726 0.499782 0
M  V30 3878 H 380.431 1.77237 1.02017 0
M  V30 3879 H 378.586 1.65889 3.50085 0
M  V30 3880 H 379 3.87227 3.53774 0
M  V30 3881 H 380.474 2.72126 4.80262 0
M  V30 3882 H 380.951 1.11854 4.24718 0
M  V30 3883 H 381.557 2.55864 3.39726 0
M  V30 3884 N 379.872 -1.04064 1.18357 0
M  V30 3885 C 381.12 -1.76915 0.977013 0
M  V30 3886 C 381.441 -1.88624 -0.494577 0
M  V30 3887 O 380.711 -1.41125 -1.3587 0
M  V30 3888 H 379.291 -0.65535 0.358504 0
M  V30 3889 H 381.953 -1.25592 1.49039 0
M  V30 3890 H 381.049 -2.78178 1.41504 0
M  V30 3891 N 381.35 -0.985608 -1.22978 0
M  V30 3892 C 382.298 -0.522631 -2.26652 0
M  V30 3893 C 383.292 0.422998 -1.64034 0
M  V30 3894 O 384.498 0.296319 -1.77544 0
M  V30 3895 H 380.873 -0.150597 -0.736766 0
M  V30 3896 H 382.844 -1.40863 -2.63059 0
M  V30 3897 C 381.593 0.154238 -3.47358 0
M  V30 3898 H 380.916 -0.564329 -3.95797 0
M  V30 3899 H 382.356 0.441744 -4.21693 0
M  V30 3900 C 380.815 1.38719 -3.07016 0
M  V30 3901 O 381.345 2.48307 -3.15764 0
M  V30 3902 N 379.551 1.25975 -2.61875 0
M  V30 3903 H 379.098 0.368068 -2.54957 0
M  V30 3904 H 379.056 2.08578 -2.3525 0
M  V30 3905 N 382.828 1.3818 -0.7579 0
M  V30 3906 C 383.791 2.28764 -0.141286 0
M  V30 3907 C 384.791 1.47388 0.642907 0
M  V30 3908 O 385.981 1.67781 0.468536 0
M  V30 3909 C 383.113 3.31184 0.808069 0
M  V30 3910 H 384.306 2.848 -0.939633 0
M  V30 3911 H 381.859 1.47212 -0.525191 0
M  V30 3912 H 382.594 2.80247 1.63193 0
M  V30 3913 H 382.379 3.91314 0.248104 0
M  V30 3914 H 383.869 3.98909 1.23536 0
M  V30 3915 N 384.306 0.507319 1.49211 0
M  V30 3916 C 385.722 0.163682 1.58758 0
M  V30 3917 C 385.922 -1.33208 1.51188 0
M  V30 3918 O 384.978 -2.10855 1.38911 0
M  V30 3919 C 386.291 0.746095 2.91297 0
M  V30 3920 C 387.839 0.712773 3.04776 0
M  V30 3921 C 388.314 1.27336 4.39943 0
M  V30 3922 N 389.805 1.23433 4.46451 0
M  V30 3923 C 390.54 1.63821 5.495 0
M  V30 3924 N 390.036 2.11832 6.5962 0
M  V30 3925 N 391.829 1.55198 5.4025 0
M  V30 3926 H 383.98 1.47972 1.52375 0
M  V30 3927 H 386.243 0.614147 0.722168 0
M  V30 3928 H 385.949 1.79534 3.02424 0
M  V30 3929 H 385.823 0.210137 3.76614 0
M  V30 3930 H 388.21 -0.327656 2.93275 0
M  V30 3931 H 388.291 1.28595 2.21127 0
M  V30 3932 H 387.935 2.3126 4.52196 0
M  V30 3933 H 387.865 0.676066 5.22242 0
M  V30 3934 H 390.356 0.882627 3.67448 0
M  V30 3935 H 390.669 2.40703 7.34358 0
M  V30 3936 H 389.014 2.1581 6.60644 0
M  V30 3937 H 392.205 1.17505 4.53112 0
M  V30 3938 H 392.378 1.86997 6.20432 0
M  V30 3939 N 385.784 -1.5574 0.241426 0
M  V30 3940 C 386.717 -2.17168 -0.700935 0
M  V30 3941 C 387.695 -1.12206 -1.1768 0
M  V30 3942 O 388.879 -1.40565 -1.25593 0
M  V30 3943 C 386.006 -2.76796 -1.95196 0
M  V30 3944 C 385.052 -3.94764 -1.61442 0
M  V30 3945 S 385.885 -5.30613 -0.72182 0
M  V30 3946 C 387.041 -5.93691 -1.98197 0
M  V30 3947 H 387.274 -2.96761 -0.178882 0
M  V30 3948 H 384.807 -1.54378 0.0259299 0
M  V30 3949 H 386.765 -3.11787 -2.67019 0
M  V30 3950 H 385.426 -1.9716 -2.44514 0
M  V30 3951 H 384.619 -4.35057 -2.54443 0
M  V30 3952 H 384.221 -3.61022 -0.976672 0
M  V30 3953 H 386.513 -6.10874 -2.92983 0
M  V30 3954 H 387.456 -6.89258 -1.62262 0
M  V30 3955 H 387.864 -5.22709 -2.13156 0
M  V30 3956 N 387.262 0.0317525 -1.57568 0
M  V30 3957 C 388.508 0.718712 -1.90279 0
M  V30 3958 C 388.863 1.73108 -0.839727 0
M  V30 3959 O 388.156 1.90997 0.15188 0
M  V30 3960 C 388.35 1.43167 -3.27472 0
M  V30 3961 C 388.179 0.489869 -4.47024 0
M  V30 3962 C 386.949 0.111909 -5.05176 0
M  V30 3963 C 389.147 -0.230592 -5.13783 0
M  V30 3964 N 387.129 -0.831427 -6.08244 0
M  V30 3965 C 388.5 -1.02968 -6.1139 0
M  V30 3966 C 390.555 -0.297821 -4.97008 0
M  V30 3967 C 389.258 -1.88982 -6.9403 0
M  V30 3968 C 391.284 -1.14507 -5.80209 0
M  V30 3969 C 390.646 -1.9321 -6.77384 0
M  V30 3970 H 386.745 0.237177 -0.745165 0
M  V30 3971 H 389.329 -0.0211267 -1.94689 0
M  V30 3972 H 387.5 2.14199 -3.23996 0
M  V30 3973 H 389.232 2.0708 -3.47707 0
M  V30 3974 H 385.987 0.473513 -4.71227 0
M  V30 3975 H 386.411 -1.29752 -6.6445 0
M  V30 3976 H 391.053 0.296346 -4.2176 0
M  V30 3977 H 388.771 -2.4948 -7.68626 0
M  V30 3978 H 392.357 -1.20059 -5.69278 0
M  V30 3979 H 391.237 -2.57711 -7.40645 0
M  V30 3980 N 388.74 1.54641 0.303973 0
M  V30 3981 C 389.67 1.88386 1.3796 0
M  V30 3982 C 390.651 0.742485 1.5304 0
M  V30 3983 O 391.836 0.997959 1.66597 0
M  V30 3984 C 388.966 2.12854 2.74427 0
M  V30 3985 C 387.92 3.28702 2.74115 0
M  V30 3986 C 387.246 3.38582 4.13844 0
M  V30 3987 C 388.546 4.65881 2.3612 0
M  V30 3988 H 390.24 2.78474 1.09966 0
M  V30 3989 H 387.786 1.33988 0.527556 0
M  V30 3990 H 389.739 2.35047 3.49758 0
M  V30 3991 H 388.463 1.19535 3.03939 0
M  V30 3992 H 387.122 3.06428 2.0124 0
M  V30 3993 H 386.77 2.42784 4.40528 0
M  V30 3994 H 386.47 4.16453 4.14537 0
M  V30 3995 H 387.994 3.63031 4.90959 0
M  V30 3996 H 389.408 4.87823 3.01167 0
M  V30 3997 H 387.805 5.46444 2.48031 0
M  V30 3998 H 388.875 4.66799 1.3125 0
M  V30 3999 N 390.218 -0.567019 1.47046 0
M  V30 4000 C 391.634 -0.891975 1.32348 0
M  V30 4001 C 391.834 -1.99154 0.306616 0
M  V30 4002 O 390.89 -2.50883 -0.28532 0
M  V30 4003 C 392.203 -1.29449 2.7141 0
M  V30 4004 C 393.751 -1.40646 2.79621 0
M  V30 4005 C 394.226 -1.84257 4.19301 0
M  V30 4006 N 395.717 -1.91424 4.21795 0
M  V30 4007 C 396.452 -2.26476 5.26779 0
M  V30 4008 N 395.948 -2.60211 6.42077 0
M  V30 4009 N 397.741 -2.27166 5.14152 0
M  V30 4010 H 389.892 0.159074 2.11803 0
M  V30 4011 H 392.155 0.00849752 0.947962 0
M  V30 4012 H 391.861 -0.560448 3.47206 0
M  V30 4013 H 391.735 -2.25273 3.02542 0
M  V30 4014 H 394.122 -2.13133 2.04104 0
M  V30 4015 H 394.203 -0.430339 2.52154 0
M  V30 4016 H 393.847 -1.12343 4.95319 0
M  V30 4017 H 393.777 -2.82855 4.44185 0
M  V30 4018 H 396.268 -1.6778 3.38612 0
M  V30 4019 H 396.581 -2.85956 7.17948 0
M  V30 4020 H 394.926 -2.57813 6.45413 0
M  V30 4021 H 398.117 -2.00244 4.23107 0
M  V30 4022 H 398.29 -2.54154 5.96079 0
M  V30 4023 N 391.696 -1.35014 -0.812953 0
M  V30 4024 C 392.973 -1.18502 -1.55617 0
M  V30 4025 C 393.353 0.238421 -2.09749 0
M  V30 4026 O 392.701 1.2411 -1.91857 0
M  V30 4027 C 392.911 -2.24783 -2.66971 0
M  V30 4028 C 394.259 -2.60268 -3.35478 0
M  V30 4029 O 395.283 -2.23648 -2.77236 0
M  V30 4030 O 394.142 -3.2321 -4.40678 0
M  V30 4031 H 391.236 -0.459984 -0.687272 0
M  V30 4032 H 393.782 -1.46677 -0.853464 0
M  V30 4033 H 392.554 -3.20284 -2.24798 0
M  V30 4034 H 392.177 -1.97841 -3.44884 0
M  V30 4035 N 393.175 1.03435 -1.18907 0
M  V30 4036 C 394.405 1.8012 -1.01195 0
M  V30 4037 C 394.813 1.8395 0.442613 0
M  V30 4038 O 394.156 1.27836 1.31923 0
M  V30 4039 C 394.218 3.26792 -1.49823 0
M  V30 4040 C 393.882 3.46609 -2.97844 0
M  V30 4041 C 394.879 3.37278 -3.95651 0
M  V30 4042 C 392.564 3.73001 -3.36416 0
M  V30 4043 C 394.558 3.54054 -5.30023 0
M  V30 4044 C 392.245 3.89423 -4.70949 0
M  V30 4045 C 393.243 3.79951 -5.67562 0
M  V30 4046 O 392.931 3.95895 -6.99659 0
M  V30 4047 H 392.663 0.573865 -0.357289 0
M  V30 4048 H 395.217 1.31207 -1.58031 0
M  V30 4049 H 393.447 3.76703 -0.873578 0
M  V30 4050 H 395.136 3.85055 -1.28404 0
M  V30 4051 H 395.902 3.16846 -3.67197 0
M  V30 4052 H 391.781 3.79469 -2.61772 0
M  V30 4053 H 395.325 3.46577 -6.05417 0
M  V30 4054 H 391.222 4.09351 -4.99101 0
M  V30 4055 H 391.99 4.13019 -7.06653 0
M  V30 4056 N 394.653 0.992116 1.22453 0
M  V30 4057 C 395.603 0.512969 2.22155 0
M  V30 4058 C 396.587 -0.418416 1.55364 0
M  V30 4059 O 397.779 -0.245363 1.75291 0
M  V30 4060 C 394.908 -0.171822 3.4287 0
M  V30 4061 C 393.994 0.779822 4.16869 0
M  V30 4062 N 394.385 1.92734 4.6764 0
M  V30 4063 C 392.683 0.59554 4.42006 0
M  V30 4064 C 393.384 2.52458 5.24061 0
M  V30 4065 N 392.36 1.80735 5.12675 0
M  V30 4066 H 396.162 1.38817 2.5905 0
M  V30 4067 H 393.676 0.854277 1.38115 0
M  V30 4068 H 395.673 -0.532469 4.13486 0
M  V30 4069 H 394.333 -1.04317 3.07487 0
M  V30 4070 H 395.344 2.30816 4.63621 0
M  V30 4071 H 392.021 -0.229805 4.16867 0
M  V30 4072 H 393.411 3.49433 5.73887 0
M  V30 4073 N 396.131 -1.37776 0.765217 0
M  V30 4074 C 397.378 -1.99849 0.326588 0
M  V30 4075 C 397.706 -1.60746 -1.09504 0
M  V30 4076 O 396.961 -0.84202 -1.76659 0
M  V30 4077 C 397.26 -3.5504 0.410053 0
M  V30 4078 C 396.926 -4.13891 1.78899 0
M  V30 4079 C 395.588 -4.29678 2.16635 0
M  V30 4080 C 397.94 -4.46236 2.69301 0
M  V30 4081 C 395.268 -4.7511 3.44221 0
M  V30 4082 C 397.62 -4.93089 3.9629 0
M  V30 4083 C 396.284 -5.07082 4.34078 0
M  V30 4084 H 395.554 -0.7313 0.119507 0
M  V30 4085 H 398.201 -1.64645 0.977968 0
M  V30 4086 H 396.506 -3.90451 -0.324878 0
M  V30 4087 H 398.203 -4.00966 0.0520699 0
M  V30 4088 H 394.793 -4.02026 1.48569 0
M  V30 4089 H 398.977 -4.3363 2.41409 0
M  V30 4090 H 394.233 -4.84129 3.73402 0
M  V30 4091 H 398.407 -5.17084 4.66472 0
M  V30 4092 H 396.034 -5.42046 5.33001 0
M  V30 4093 N 397.609 -0.515225 -1.4894 0
M  V30 4094 C 398.886 0.0879088 -1.95402 0
M  V30 4095 C 399.266 1.52745 -1.45712 0
M  V30 4096 O 398.614 2.18238 -0.677093 0
M  V30 4097 C 398.824 -0.0141055 -3.48997 0
M  V30 4098 C 400.172 0.152646 -4.24326 0
M  V30 4099 O 401.196 0.0604025 -3.56149 0
M  V30 4100 O 400.055 0.34384 -5.45417 0
M  V30 4101 H 397.149 0.0874636 -0.822362 0
M  V30 4102 H 399.695 -0.578775 -1.59525 0
M  V30 4103 H 398.467 -1.01745 -3.77841 0
M  V30 4104 H 398.09 0.692091 -3.9153 0
M  V30 4105 N 399.087 1.5561 -0.249682 0
M  V30 4106 C 400.335 1.98618 0.373548 0
M  V30 4107 C 400.656 1.13919 1.58264 0
M  V30 4108 O 399.926 0.222637 1.94631 0
M  V30 4109 H 398.506 0.733571 0.141006 0
M  V30 4110 H 401.168 1.91748 -0.349117 0
M  V30 4111 H 400.264 3.04584 0.680796 0
M  V30 4112 N 400.565 -0.0233959 1.57583 0
M  V30 4113 C 401.495 -1.02162 2.09965 0
M  V30 4114 C 402.476 -1.3735 1.00344 0
M  V30 4115 O 403.661 -1.46135 1.27899 0
M  V30 4116 C 400.791 -2.32081 2.58371 0
M  V30 4117 C 399.745 -2.1112 3.72307 0
M  V30 4118 C 399.071 -3.46848 4.06941 0
M  V30 4119 C 400.371 -1.49276 5.00514 0
M  V30 4120 H 402.065 -0.585557 2.93618 0
M  V30 4121 H 399.611 -0.280218 1.41247 0
M  V30 4122 H 401.564 -3.02249 2.93639 0
M  V30 4123 H 400.288 -2.77758 1.71808 0
M  V30 4124 H 398.947 -1.43384 3.37397 0
M  V30 4125 H 398.595 -3.90184 3.17436 0
M  V30 4126 H 398.295 -3.33646 4.83688 0
M  V30 4127 H 399.819 -4.18369 4.44747 0
M  V30 4128 H 401.233 -2.09368 5.33702 0
M  V30 4129 H 399.63 -1.46632 5.8191 0
M  V30 4130 H 400.7 -0.459217 4.82721 0
M  V30 4131 N 402.043 -1.548 -0.295768 0
M  V30 4132 C 403.459 -1.4613 -0.641722 0
M  V30 4133 C 403.659 -0.656771 -1.90496 0
M  V30 4134 O 402.715 -0.166547 -2.5195 0
M  V30 4135 C 404.028 -2.90141 -0.789852 0
M  V30 4136 C 405.576 -3.00216 -0.885396 0
M  V30 4137 C 406.051 -4.45434 -1.06548 0
M  V30 4138 N 407.542 -4.49166 -1.13156 0
M  V30 4139 C 408.277 -5.58717 -1.28929 0
M  V30 4140 N 407.773 -6.78182 -1.41567 0
M  V30 4141 N 409.566 -5.46415 -1.31859 0
M  V30 4142 H 401.717 -2.05574 0.534147 0
M  V30 4143 H 403.98 -0.931259 0.177372 0
M  V30 4144 H 403.686 -3.51635 0.0675598 0
M  V30 4145 H 403.56 -3.37859 -1.67724 0
M  V30 4146 H 405.947 -2.38833 -1.73329 0
M  V30 4147 H 406.028 -2.55787 0.0261185 0
M  V30 4148 H 405.672 -5.07413 -0.222335 0
M  V30 4149 H 405.602 -4.87499 -1.9913 0
M  V30 4150 H 408.093 -3.631 -1.04721 0
M  V30 4151 H 408.406 -7.57428 -1.53372 0
M  V30 4152 H 406.751 -6.81037 -1.38613 0
M  V30 4153 H 409.942 -4.5203 -1.21601 0
M  V30 4154 H 410.115 -6.31841 -1.43808 0
M  V30 4155 N 403.521 0.559213 -1.47345 0
M  V30 4156 C 404.451 1.67622 -1.62558 0
M  V30 4157 C 405.432 1.63331 -0.475087 0
M  V30 4158 O 406.617 1.80983 -0.704182 0
M  V30 4159 C 403.747 3.0626 -1.63774 0
M  V30 4160 C 402.701 3.25397 -2.7803 0
M  V30 4161 C 402.027 4.64801 -2.64318 0
M  V30 4162 C 403.327 3.10965 -4.19641 0
M  V30 4163 H 405.021 1.55146 -2.56067 0
M  V30 4164 H 402.567 0.744961 -1.23233 0
M  V30 4165 H 404.52 3.84247 -1.73008 0
M  V30 4166 H 403.244 3.1969 -0.66825 0
M  V30 4167 H 401.903 2.49817 -2.68304 0
M  V30 4168 H 401.551 4.75028 -1.65401 0
M  V30 4169 H 401.251 4.78555 -3.40968 0
M  V30 4170 H 402.775 5.44926 -2.75478 0
M  V30 4171 H 404.189 3.78772 -4.30354 0
M  V30 4172 H 402.586 3.36229 -4.97062 0
M  V30 4173 H 403.656 2.07736 -4.38148 0
M  V30 4174 N 404.999 1.35443 0.805782 0
M  V30 4175 C 406.276 1.19325 1.54987 0
M  V30 4176 C 406.656 -0.227294 2.09873 0
M  V30 4177 O 406.004 -1.2309 1.92512 0
M  V30 4178 C 406.214 2.26196 2.65775 0
M  V30 4179 C 407.562 2.62043 3.34094 0
M  V30 4180 O 408.586 2.25115 2.76046 0
M  V30 4181 O 407.445 3.25542 4.38958 0
M  V30 4182 H 404.539 0.463623 0.684823 0
M  V30 4183 H 407.085 1.47127 0.845674 0
M  V30 4184 H 405.857 3.21471 2.23096 0
M  V30 4185 H 405.48 1.99667 3.43829 0
M  V30 4186 N 406.477 -1.02803 1.19454 0
M  V30 4187 C 407.44 -2.09264 0.934955 0
M  V30 4188 C 408.44 -1.60576 -0.0849015 0
M  V30 4189 O 409.63 -1.73554 0.149933 0
M  V30 4190 C 406.762 -3.38482 0.40531 0
M  V30 4191 H 407.955 -2.33726 1.87916 0
M  V30 4192 H 405.508 -1.19426 1.00832 0
M  V30 4193 H 406.243 -3.19689 -0.544899 0
M  V30 4194 H 406.028 -3.75142 1.14065 0
M  V30 4195 H 407.518 -4.16894 0.242806 0
M  V30 4196 N 407.956 -0.998596 -1.21925 0
M  V30 4197 C 409.184 -0.696286 -1.94832 0
M  V30 4198 C 409.599 0.740032 -1.73692 0
M  V30 4199 O 408.956 1.5 -1.03953 0
M  V30 4200 C 409.007 -0.999833 -3.47398 0
M  V30 4201 O 408.728 -2.37972 -3.67833 0
M  V30 4202 C 410.229 -0.716025 -4.37479 0
M  V30 4203 H 407.449 -0.257111 -0.619786 0
M  V30 4204 H 409.993 -1.33491 -1.54921 0
M  V30 4205 H 408.148 -0.406918 -3.85257 0
M  V30 4206 H 408.562 -2.48338 -4.61983 0
M  V30 4207 H 410.036 -0.978642 -5.43256 0
M  V30 4208 H 410.513 0.349968 -4.37803 0
M  V30 4209 H 411.119 -1.29025 -4.05256 0
M  V30 4210 N 409.434 1.37368 -0.772513 0
M  V30 4211 C 410.845 1.8231 -0.402493 0
M  V30 4212 C 411.196 1.6436 1.07146 0
M  V30 4213 O 410.321 1.15514 1.82991 0
M  V30 4214 C 410.916 3.30979 -0.723776 0
M  V30 4215 C 409.475 3.74195 -0.406802 0
M  V30 4216 C 408.622 2.59885 -0.967218 0
M  V30 4217 H 411.573 1.25829 -0.967099 0
M  V30 4218 H 411.594 3.80499 -0.00870832 0
M  V30 4219 H 411.106 3.44011 -1.7966 0
M  V30 4220 H 409.207 3.66732 0.658673 0
M  V30 4221 H 409.32 4.7027 -0.915588 0
M  V30 4222 H 407.684 2.51674 -0.391416 0
M  V30 4223 H 408.467 2.7571 -2.04546 0
M  V30 4224 N 410.912 0.523116 1.48665 0
M  V30 4225 C 412.142 -0.00961724 2.06598 0
M  V30 4226 C 412.55 -1.29333 1.38093 0
M  V30 4227 O 411.893 -1.77846 0.46007 0
M  V30 4228 C 411.955 -0.311135 3.58151 0
M  V30 4229 C 411.619 0.878092 4.48485 0
M  V30 4230 C 412.616 1.77464 4.88674 0
M  V30 4231 C 410.301 1.08315 4.90483 0
M  V30 4232 C 412.295 2.86021 5.69623 0
M  V30 4233 C 409.982 2.17187 5.71203 0
M  V30 4234 C 410.98 3.05873 6.10681 0
M  V30 4235 O 410.668 4.12862 6.89783 0
M  V30 4236 H 410.4 0.0272658 0.67545 0
M  V30 4237 H 412.954 0.726156 1.92136 0
M  V30 4238 H 411.184 -1.10079 3.70701 0
M  V30 4239 H 412.873 -0.785125 3.98234 0
M  V30 4240 H 413.639 1.62813 4.56855 0
M  V30 4241 H 409.518 0.402149 4.59243 0
M  V30 4242 H 413.062 3.55272 6.00356 0
M  V30 4243 H 408.959 2.31824 6.02435 0
M  V30 4244 H 409.727 4.10487 7.08126 0
M  V30 4245 N 412.39 -1.55475 0.257931 0
M  V30 4246 C 413.323 -2.179 -0.677862 0
M  V30 4247 C 414.301 -1.13448 -1.16483 0
M  V30 4248 O 415.485 -1.41889 -1.24095 0
M  V30 4249 C 412.612 -2.78851 -1.92249 0
M  V30 4250 C 411.658 -3.96454 -1.57246 0
M  V30 4251 S 412.491 -5.31349 -0.665501 0
M  V30 4252 C 413.647 -5.9576 -1.91889 0
M  V30 4253 H 413.88 -2.96934 -0.147396 0
M  V30 4254 H 411.413 -1.54342 0.0423023 0
M  V30 4255 H 413.371 -3.14602 -2.63697 0
M  V30 4256 H 412.032 -1.99742 -2.42409 0
M  V30 4257 H 411.225 -4.37731 -2.49814 0
M  V30 4258 H 410.827 -3.62038 -0.938325 0
M  V30 4259 H 413.119 -6.13947 -2.86487 0
M  V30 4260 H 414.062 -6.9094 -1.54942 0
M  V30 4261 H 414.47 -5.2494 -2.076 0
M  V30 4262 N 413.868 0.0150385 -1.57593 0
M  V30 4263 C 415.096 0.714395 -1.94175 0
M  V30 4264 C 415.511 1.68135 -0.858841 0
M  V30 4265 O 414.868 1.81766 0.163567 0
M  V30 4266 C 414.919 1.45933 -3.30735 0
M  V30 4267 O 414.64 0.531167 -4.34868 0
M  V30 4268 C 416.141 2.25456 -3.81686 0
M  V30 4269 H 413.361 0.199923 -0.640525 0
M  V30 4270 H 415.905 -0.0316096 -2.04476 0
M  V30 4271 H 414.06 2.15709 -3.21789 0
M  V30 4272 H 414.474 1.05509 -5.13778 0
M  V30 4273 H 415.948 2.731 -4.79709 0
M  V30 4274 H 416.425 3.07485 -3.13607 0
M  V30 4275 H 417.031 1.60727 -3.9376 0
M  V30 4276 N 415.346 1.54954 0.287554 0
M  V30 4277 C 416.623 1.65569 1.04146 0
M  V30 4278 C 417.003 0.512672 2.0478 0
M  V30 4279 O 416.351 -0.489038 2.23205 0
M  V30 4280 C 416.561 3.04163 1.71131 0
M  V30 4281 C 417.909 3.61429 2.22832 0
M  V30 4282 O 418.933 3.06702 1.81141 0
M  V30 4283 O 417.792 4.57281 2.9926 0
M  V30 4284 H 414.886 0.671881 0.482188 0
M  V30 4285 H 417.432 1.67297 0.28457 0
M  V30 4286 H 416.204 3.78796 0.981303 0
M  V30 4287 H 415.827 3.06271 2.53543 0
M  V30 4288 N 416.824 -0.551391 1.4764 0
M  V30 4289 C 418.101 -1.31229 1.45046 0
M  V30 4290 C 418.481 -2.10563 0.150527 0
M  V30 4291 O 417.829 -2.11374 -0.867956 0
M  V30 4292 C 418.039 -2.21189 2.69956 0
M  V30 4293 C 419.387 -2.82021 3.1741 0
M  V30 4294 O 420.411 -2.31488 2.70724 0
M  V30 4295 O 419.27 -3.73885 3.98588 0
M  V30 4296 H 416.364 -0.591193 0.578291 0
M  V30 4297 H 418.91 -0.569813 1.59847 0
M  V30 4298 H 417.682 -1.62207 3.56096 0
M  V30 4299 H 417.305 -3.02722 2.57769 0
M  V30 4300 N 418.302 -1.35869 -0.798587 0
M  V30 4301 C 419.527 -1.32883 -1.59238 0
M  V30 4302 C 419.952 0.0894587 -1.87887 0
M  V30 4303 O 419.31 1.05869 -1.47178 0
M  V30 4304 C 419.358 -2.14892 -2.89575 0
M  V30 4305 O 418.462 -1.53512 -3.82763 0
M  V30 4306 H 417.803 -0.455236 -0.48338 0
M  V30 4307 H 420.333 -1.79024 -0.990539 0
M  V30 4308 H 420.343 -2.27139 -3.38928 0
M  V30 4309 H 419.018 -3.17998 -2.68049 0
M  V30 4310 H 417.595 -1.50153 -3.41334 0
M  V30 4311 N 419.78 1.02168 -1.19998 0
M  V30 4312 C 420.69 2.14069 -0.959774 0
M  V30 4313 C 421.706 1.73804 0.082655 0
M  V30 4314 O 422.882 2.01133 -0.103633 0
M  V30 4315 C 419.947 3.42936 -0.509459 0
M  V30 4316 C 419.008 3.97474 -1.62213 0
M  V30 4317 C 418.241 5.2019 -1.19321 0
M  V30 4318 O 418.464 5.70369 -0.0597726 0
M  V30 4319 O 417.398 5.67749 -1.99863 0
M  V30 4320 H 421.224 2.37199 -1.89658 0
M  V30 4321 H 418.809 1.12469 -0.983411 0
M  V30 4322 H 420.691 4.20551 -0.267322 0
M  V30 4323 H 419.366 3.21234 0.398821 0
M  V30 4324 H 418.273 3.21161 -1.9185 0
M  V30 4325 H 419.606 4.23555 -2.50723 0
M  V30 4326 N 421.258 1.00505 1.21394 0
M  V30 4327 C 422.486 0.706609 1.9446 0
M  V30 4328 C 422.901 -0.73081 1.74082 0
M  V30 4329 O 422.258 -1.49446 1.04747 0
M  V30 4330 C 422.309 1.01824 3.46863 0
M  V30 4331 O 422.03 2.39919 3.66566 0
M  V30 4332 C 423.531 0.739216 4.37093 0
M  V30 4333 H 420.751 0.260394 0.618414 0
M  V30 4334 H 423.295 1.34311 1.54211 0
M  V30 4335 H 421.45 0.427343 3.85036 0
M  V30 4336 H 421.864 2.50784 4.6066 0
M  V30 4337 H 423.338 1.00744 5.42729 0
M  V30 4338 H 423.815 -0.326746 4.37983 0
M  V30 4339 H 424.421 1.31173 4.04566 0
M  V30 4340 N 422.737 -1.36956 0.779787 0
M  V30 4341 C 423.687 -2.27539 0.144892 0
M  V30 4342 C 424.671 -1.46493 -0.665488 0
M  V30 4343 O 425.863 -1.68968 -0.527141 0
M  V30 4344 C 422.992 -3.35512 -0.727082 0
M  V30 4345 C 422.078 -4.24001 0.0915642 0
M  V30 4346 N 422.469 -4.92757 1.14125 0
M  V30 4347 C 420.767 -4.45807 -0.131141 0
M  V30 4348 C 421.468 -5.58138 1.6388 0
M  V30 4349 N 420.444 -5.35241 0.94962 0
M  V30 4350 H 424.246 -2.78176 0.948446 0
M  V30 4351 H 421.76 -1.50169 0.618315 0
M  V30 4352 H 423.757 -3.99324 -1.19776 0
M  V30 4353 H 422.417 -2.86431 -1.52929 0
M  V30 4354 H 423.428 -4.94984 1.52353 0
M  V30 4355 H 420.105 -4.07582 -0.904621 0
M  V30 4356 H 421.495 -6.23071 2.51461 0
M  V30 4357 N 424.215 -0.530993 -1.48385 0
M  V30 4358 C 425.464 0.00474348 -2.01699 0
M  V30 4359 C 425.777 1.35227 -1.41325 0
M  V30 4360 O 426.983 1.97643 -1.86144 0
M  V30 4361 C 425.439 0.0588473 -3.59852 0
M  V30 4362 C 425.047 -1.28385 -4.2921 0
M  V30 4363 C 426.791 0.543358 -4.21008 0
M  V30 4364 C 424.698 -1.19028 -5.79298 0
M  V30 4365 H 423.628 0.00554317 -0.75398 0
M  V30 4366 H 426.279 -0.674924 -1.70637 0
M  V30 4367 H 424.661 0.803612 -3.8776 0
M  V30 4368 H 425.835 -2.04426 -4.12973 0
M  V30 4369 H 424.15 -1.70418 -3.7993 0
M  V30 4370 H 426.747 0.631351 -5.3096 0
M  V30 4371 H 427.09 1.54937 -3.86394 0
M  V30 4372 H 427.623 -0.145754 -3.97533 0
M  V30 4373 H 424.362 -2.17147 -6.18488 0
M  V30 4374 H 423.882 -0.471246 -5.97946 0
M  V30 4375 H 425.561 -0.881365 -6.40969 0
M  V30 4376 N 425.693 1.55336 -0.266172 0
M  V30 4377 C 426.623 2.25146 0.618981 0
M  V30 4378 C 427.604 1.23845 1.16604 0
M  V30 4379 O 428.789 1.52544 1.20183 0
M  V30 4380 C 425.919 2.96572 1.80728 0
M  V30 4381 C 424.873 4.04726 1.39215 0
M  V30 4382 C 424.199 4.63678 2.66283 0
M  V30 4383 C 425.499 5.19407 0.548942 0
M  V30 4384 H 427.193 2.99377 0.0368116 0
M  V30 4385 H 424.739 1.43991 0.0162651 0
M  V30 4386 H 426.692 3.44116 2.43232 0
M  V30 4387 H 425.416 2.19861 2.41514 0
M  V30 4388 H 424.075 3.57979 0.790351 0
M  V30 4389 H 423.723 3.83646 3.25308 0
M  V30 4390 H 423.423 5.367 2.39222 0
M  V30 4391 H 424.947 5.13967 3.29651 0
M  V30 4392 H 426.361 5.63059 1.07876 0
M  V30 4393 H 424.758 5.98936 0.373593 0
M  V30 4394 H 425.828 4.8295 -0.434394 0
M  V30 4395 N 427.171 -0.0066808 1.57599 0
M  V30 4396 C 428.399 -0.704087 1.94551 0
M  V30 4397 C 428.814 -1.67677 0.867746 0
M  V30 4398 O 428.171 -1.8185 -0.153925 0
M  V30 4399 C 428.222 -1.44177 3.31505 0
M  V30 4400 O 427.943 -0.508097 4.35144 0
M  V30 4401 C 429.444 -2.23429 3.82876 0
M  V30 4402 H 426.664 -0.196523 0.641576 0
M  V30 4403 H 429.208 0.042453 2.04456 0
M  V30 4404 H 427.363 -2.13999 3.22929 0
M  V30 4405 H 427.777 -1.02782 5.14331 0
M  V30 4406 H 429.251 -2.70552 4.8115 0
M  V30 4407 H 429.728 -3.05818 3.15233 0
M  V30 4408 H 430.334 -1.58636 3.94607 0
M  V30 4409 N 428.649 -1.55105 -0.279332 0
M  V30 4410 C 429.559 -1.90638 -1.36727 0
M  V30 4411 C 430.575 -0.802899 -1.54368 0
M  V30 4412 O 431.751 -1.10138 -1.68616 0
M  V30 4413 C 428.816 -2.16547 -2.70755 0
M  V30 4414 C 427.877 -3.40146 -2.61915 0
M  V30 4415 C 427.11 -3.6481 -3.8955 0
M  V30 4416 O 427.333 -2.92095 -4.89935 0
M  V30 4417 O 426.267 -4.58343 -3.90135 0
M  V30 4418 H 430.093 -2.83237 -1.09591 0
M  V30 4419 H 427.678 -1.4157 -0.477306 0
M  V30 4420 H 429.56 -2.34665 -3.50014 0
M  V30 4421 H 428.235 -1.27131 -2.9769 0
M  V30 4422 H 427.142 -3.2737 -1.81052 0
M  V30 4423 H 428.475 -4.29761 -2.3993 0
M  V30 4424 N 430.127 0.543554 -1.4793 0
M  V30 4425 C 431.057 1.65888 -1.64327 0
M  V30 4426 C 432.038 1.62818 -0.492383 0
M  V30 4427 O 433.223 1.80226 -0.723338 0
M  V30 4428 C 430.353 3.04506 -1.67013 0
M  V30 4429 C 429.307 3.2243 -2.81466 0
M  V30 4430 C 428.633 4.61972 -2.69233 0
M  V30 4431 C 429.933 3.06496 -4.22915 0
M  V30 4432 H 431.627 1.52421 -2.57698 0
M  V30 4433 H 429.173 0.731849 -1.24016 0
M  V30 4434 H 431.126 3.82391 -1.77074 0
M  V30 4435 H 429.85 3.18964 -0.70212 0
M  V30 4436 H 428.509 2.46957 -2.70938 0
M  V30 4437 H 428.157 4.73247 -1.7043 0
M  V30 4438 H 427.857 4.74911 -3.46025 0
M  V30 4439 H 429.381 5.41974 -2.81242 0
M  V30 4440 H 430.795 3.74186 -4.34348 0
M  V30 4441 H 429.192 3.30938 -5.006 0
M  V30 4442 H 430.262 2.03077 -4.40327 0
M  V30 4443 N 431.605 1.3629 0.791371 0
M  V30 4444 C 432.568 1.30309 1.88553 0
M  V30 4445 C 433.568 0.211204 1.59407 0
M  V30 4446 O 434.758 0.465865 1.67855 0
M  V30 4447 C 431.89 1.01956 3.25297 0
M  V30 4448 H 433.083 2.27614 1.95273 0
M  V30 4449 H 430.636 1.21035 0.988953 0
M  V30 4450 H 431.371 0.050998 3.2426 0
M  V30 4451 H 431.156 1.80968 3.4784 0
M  V30 4452 H 432.646 1.0037 4.05359 0
M  V30 4453 N 433.083 -1.0153 1.20538 0
M  V30 4454 C 434.015 -2.10224 0.913155 0
M  V30 4455 C 435.028 -1.62495 -0.0995998 0
M  V30 4456 O 436.217 -1.78014 0.131582 0
M  V30 4457 C 433.317 -3.37111 0.347717 0
M  V30 4458 C 432.49 -4.13971 1.41233 0
M  V30 4459 C 431.549 -5.19158 0.857976 0
M  V30 4460 O 430.575 -5.48 1.53897 0
M  V30 4461 N 431.777 -5.7955 -0.331966 0
M  V30 4462 H 434.542 -2.35879 1.84881 0
M  V30 4463 H 432.103 -1.17931 1.10923 0
M  V30 4464 H 434.095 -4.04683 -0.0373026 0
M  V30 4465 H 432.665 -3.08696 -0.492527 0
M  V30 4466 H 431.885 -3.41351 1.97163 0
M  V30 4467 H 433.173 -4.62103 2.12928 0
M  V30 4468 H 432.571 -5.58455 -0.902478 0
M  V30 4469 H 431.128 -6.48464 -0.65861 0
M  V30 4470 N 434.561 -1.01147 -1.20859 0
M  V30 4471 C 435.471 -0.58686 -2.27141 0
M  V30 4472 C 436.487 0.373198 -1.69951 0
M  V30 4473 O 437.663 0.235423 -2.00019 0
M  V30 4474 C 434.728 0.0733602 -3.46622 0
M  V30 4475 C 433.789 -0.931995 -4.19061 0
M  V30 4476 C 433.022 -0.303186 -5.32838 0
M  V30 4477 O 433.245 0.898395 -5.63281 0
M  V30 4478 O 432.179 -1.01735 -5.9324 0
M  V30 4479 H 436.005 -1.47155 -2.65667 0
M  V30 4480 H 433.59 -0.780689 -1.2738 0
M  V30 4481 H 435.472 0.442333 -4.19072 0
M  V30 4482 H 434.147 0.932329 -3.09983 0
M  V30 4483 H 433.054 -1.35224 -3.48805 0
M  V30 4484 H 434.387 -1.76076 -4.59628 0
M  V30 4485 N 436.039 1.36541 -0.78704 0
M  V30 4486 C 437.288 1.98552 -0.35494 0
M  V30 4487 C 437.601 1.63171 1.07864 0
M  V30 4488 O 438.807 2.18399 1.61289 0
M  V30 4489 C 437.263 3.55136 -0.583671 0
M  V30 4490 C 436.871 3.99444 -2.02851 0
M  V30 4491 C 438.615 4.2395 -0.215957 0
M  V30 4492 C 436.522 5.48796 -2.20403 0
M  V30 4493 H 435.452 0.742888 -0.128972 0
M  V30 4494 H 438.103 1.5587 -0.968337 0
M  V30 4495 H 436.485 3.95875 0.0994046 0
M  V30 4496 H 437.659 3.6991 -2.74779 0
M  V30 4497 H 435.974 3.43459 -2.35425 0
M  V30 4498 H 438.571 5.33709 -0.325405 0
M  V30 4499 H 438.914 4.07827 0.835646 0
M  V30 4500 H 439.447 3.88565 -0.852175 0
M  V30 4501 H 436.186 5.69864 -3.23937 0
M  V30 4502 H 435.706 5.79964 -1.52977 0
M  V30 4503 H 437.385 6.14986 -2.01002 0
M  V30 4504 N 437.518 0.538854 1.48102 0
M  V30 4505 C 438.468 -0.23907 2.26743 0
M  V30 4506 C 439.452 -0.901923 1.33245 0
M  V30 4507 O 440.644 -0.803263 1.57723 0
M  V30 4508 C 437.773 -1.2799 3.18549 0
M  V30 4509 C 436.859 -0.621388 4.19523 0
M  V30 4510 N 437.25 0.298004 5.04921 0
M  V30 4511 C 435.548 -0.877533 4.37282 0
M  V30 4512 C 436.249 0.678757 5.77726 0
M  V30 4513 N 435.225 0.0377881 5.43587 0
M  V30 4514 H 439.027 0.468096 2.90148 0
M  V30 4515 H 436.541 0.357497 1.58416 0
M  V30 4516 H 438.538 -1.851 3.73555 0
M  V30 4517 H 437.198 -1.98835 2.567 0
M  V30 4518 H 438.209 0.671126 5.13533 0
M  V30 4519 H 434.886 -1.57588 3.86616 0
M  V30 4520 H 436.276 1.43316 6.56437 0
M  V30 4521 N 438.996 -1.55193 0.274407 0
M  V30 4522 C 439.906 -2.26164 -0.623473 0
M  V30 4523 C 440.922 -1.28729 -1.17068 0
M  V30 4524 O 442.098 -1.61663 -1.20112 0
M  V30 4525 C 439.163 -2.96833 -1.7914 0
M  V30 4526 C 438.224 -4.09745 -1.28093 0
M  V30 4527 C 437.457 -4.77034 -2.3932 0
M  V30 4528 O 437.68 -4.4353 -3.5866 0
M  V30 4529 O 436.614 -5.64996 -2.07516 0
M  V30 4530 H 440.44 -3.03661 -0.0485661 0
M  V30 4531 H 438.025 -1.49341 0.0418382 0
M  V30 4532 H 439.907 -3.41248 -2.4724 0
M  V30 4533 H 438.582 -2.22253 -2.35341 0
M  V30 4534 H 437.489 -3.69787 -0.566416 0
M  V30 4535 H 438.822 -4.86224 -0.764683 0
M  V30 4536 N 440.474 -0.00167713 -1.576 0
M  V30 4537 C 441.404 0.988091 -2.11563 0
M  V30 4538 C 442.385 1.35736 -1.02517 0
M  V30 4539 O 443.57 1.44082 -1.30208 0
M  V30 4540 C 440.7 2.27941 -2.62031 0
M  V30 4541 C 439.654 2.0517 -3.75619 0
M  V30 4542 C 438.98 3.4033 -4.12407 0
M  V30 4543 C 440.28 1.41294 -5.02825 0
M  V30 4544 H 441.974 0.538771 -2.94513 0
M  V30 4545 H 439.52 0.257712 -1.41675 0
M  V30 4546 H 441.473 2.97539 -2.9841 0
M  V30 4547 H 440.197 2.74989 -1.76205 0
M  V30 4548 H 438.856 1.37998 -3.39635 0
M  V30 4549 H 438.504 3.85085 -3.23603 0
M  V30 4550 H 438.204 3.25909 -4.88935 0
M  V30 4551 H 439.728 4.1124 -4.51347 0
M  V30 4552 H 441.142 2.00851 -5.36965 0
M  V30 4553 H 439.539 1.37356 -5.84169 0
M  V30 4554 H 440.609 0.382362 -4.8339 0
M  V30 4555 N 441.952 1.55251 0.271103 0
M  V30 4556 C 443.2 1.75599 1.00047 0
M  V30 4557 C 443.521 0.561188 1.8675 0
M  V30 4558 O 442.791 -0.423846 1.9126 0
M  V30 4559 H 441.371 0.647562 0.372387 0
M  V30 4560 H 444.033 1.92656 0.294876 0
M  V30 4561 H 443.129 2.65766 1.6363 0
M  V30 4562 N 443.43 -0.535701 1.48216 0
M  V30 4563 C 444.678 -1.28928 1.55634 0
M  V30 4564 C 444.999 -1.93645 0.229514 0
M  V30 4565 O 444.269 -1.81038 -0.74846 0
M  V30 4566 H 442.849 -0.47884 0.573342 0
M  V30 4567 H 445.511 -0.623853 1.84646 0
M  V30 4568 H 444.607 -2.07157 2.33436 0
M  V30 4569 N 444.908 -1.36708 -0.784132 0
M  V30 4570 C 446.136 -1.34398 -1.57305 0
M  V30 4571 C 446.551 0.0735577 -1.88657 0
M  V30 4572 O 445.908 1.03193 -1.50524 0
M  V30 4573 C 445.959 -2.17053 -2.89085 0
M  V30 4574 O 445.68 -3.53281 -2.59083 0
M  V30 4575 C 447.181 -2.22583 -3.83369 0
M  V30 4576 H 444.401 -0.460819 -0.487736 0
M  V30 4577 H 446.945 -1.79879 -0.972819 0
M  V30 4578 H 445.1 -1.75113 -3.45564 0
M  V30 4579 H 445.514 -3.9647 -3.43383 0
M  V30 4580 H 446.988 -2.84763 -4.72878 0
M  V30 4581 H 447.465 -1.23075 -4.21603 0
M  V30 4582 H 448.071 -2.64781 -3.32823 0
M  V30 4583 N 446.386 1.0089 -1.21074 0
M  V30 4584 C 447.336 2.0799 -0.934034 0
M  V30 4585 C 448.32 1.60529 0.10919 0
M  V30 4586 O 449.512 1.76722 -0.0992198 0
M  V30 4587 C 446.641 3.39693 -0.496334 0
M  V30 4588 C 445.727 3.93833 -1.57341 0
M  V30 4589 N 446.118 4.21388 -2.7976 0
M  V30 4590 C 444.416 4.22067 -1.44137 0
M  V30 4591 C 445.117 4.65156 -3.49292 0
M  V30 4592 N 444.093 4.67895 -2.76722 0
M  V30 4593 H 447.895 2.27213 -1.86417 0
M  V30 4594 H 445.409 1.18927 -1.10589 0
M  V30 4595 H 447.406 4.15962 -0.279471 0
M  V30 4596 H 446.066 3.21879 0.427084 0
M  V30 4597 H 447.077 4.10061 -3.1634 0
M  V30 4598 H 443.754 4.1341 -0.582947 0
M  V30 4599 H 445.144 4.95231 -4.54088 0
M  V30 4600 N 447.864 1.01787 1.20321 0
M  V30 4601 C 448.794 0.609625 2.25401 0
M  V30 4602 C 449.775 -0.375951 1.65893 0
M  V30 4603 O 450.96 -0.261101 1.92437 0
M  V30 4604 C 448.09 -0.0515995 3.47262 0
M  V30 4605 C 447.044 0.855095 4.19371 0
M  V30 4606 C 446.37 0.0595757 5.34667 0
M  V30 4607 C 447.67 2.16374 4.75373 0
M  V30 4608 H 449.364 1.48803 2.59804 0
M  V30 4609 H 446.91 0.716934 1.24884 0
M  V30 4610 H 448.863 -0.348764 4.19954 0
M  V30 4611 H 447.587 -0.964726 3.12027 0
M  V30 4612 H 446.246 1.13628 3.48546 0
M  V30 4613 H 445.894 -0.85524 4.95676 0
M  V30 4614 H 445.594 0.663406 5.83843 0
M  V30 4615 H 447.118 -0.231105 6.10162 0
M  V30 4616 H 448.532 1.92885 5.39878 0
M  V30 4617 H 446.929 2.71853 5.34991 0
M  V30 4618 H 447.999 2.82589 3.94045 0
M  V30 4619 N 449.342 -1.36122 0.79427 0
M  V30 4620 C 450.272 -2.32551 0.210328 0
M  V30 4621 C 451.253 -1.56884 -0.657386 0
M  V30 4622 O 452.438 -1.85014 -0.590207 0
M  V30 4623 C 449.568 -3.41128 -0.651819 0
M  V30 4624 C 448.522 -4.27842 0.116395 0
M  V30 4625 C 447.848 -5.2763 -0.86666 0
M  V30 4626 C 449.148 -5.05647 1.30837 0
M  V30 4627 H 450.842 -2.81636 1.01594 0
M  V30 4628 H 448.388 -1.35407 0.489981 0
M  V30 4629 H 450.341 -4.07581 -1.07031 0
M  V30 4630 H 449.065 -2.90622 -1.49019 0
M  V30 4631 H 447.724 -3.62952 0.515915 0
M  V30 4632 H 447.372 -4.73395 -1.70019 0
M  V30 4633 H 447.072 -5.86514 -0.35705 0
M  V30 4634 H 448.596 -5.96955 -1.28361 0
M  V30 4635 H 450.01 -5.65113 0.965393 0
M  V30 4636 H 448.407 -5.73967 1.75161 0
M  V30 4637 H 449.477 -4.37006 2.10128 0
M  V30 4638 N 450.82 -0.546701 -1.47814 0
M  V30 4639 C 451.75 0.195317 -2.32682 0
M  V30 4640 C 452.731 0.918981 -1.43139 0
M  V30 4641 O 453.916 0.901501 -1.72008 0
M  V30 4642 C 451.046 1.23237 -3.247 0
M  V30 4643 C 450 0.625818 -4.234 0
M  V30 4644 C 449.326 1.76674 -5.04669 0
M  V30 4645 C 450.626 -0.413515 -5.2066 0
M  V30 4646 H 452.32 -0.513184 -2.94969 0
M  V30 4647 H 449.866 -0.248241 -1.41844 0
M  V30 4648 H 451.819 1.75955 -3.82907 0
M  V30 4649 H 450.543 1.97067 -2.60446 0
M  V30 4650 H 449.202 0.120023 -3.66403 0
M  V30 4651 H 448.85 2.49383 -4.36826 0
M  V30 4652 H 448.55 1.36673 -5.71484 0
M  V30 4653 H 450.074 2.29738 -5.65732 0
M  V30 4654 H 451.488 0.0272042 -5.73294 0
M  V30 4655 H 449.885 -0.731825 -5.95621 0
M  V30 4656 H 450.955 -1.31325 -4.66778 0
M  V30 4657 N 452.299 1.55045 -0.282633 0
M  V30 4658 C 453.262 2.21515 0.588539 0
M  V30 4659 C 454.262 1.19535 1.07554 0
M  V30 4660 O 455.452 1.44391 0.974514 0
M  V30 4661 C 452.584 2.88704 1.8128 0
M  V30 4662 H 453.777 2.99899 0.00806397 0
M  V30 4663 H 451.33 1.56265 -0.0333067 0
M  V30 4664 H 452.065 2.14352 2.43359 0
M  V30 4665 H 451.85 3.63443 1.47144 0
M  V30 4666 H 453.34 3.39465 2.43214 0
M  V30 4667 N 453.777 0.010035 1.57597 0
M  V30 4668 C 454.687 -0.994226 2.12491 0
M  V30 4669 C 455.703 -1.37013 1.07254 0
M  V30 4670 O 456.879 -1.45542 1.3921 0
M  V30 4671 C 453.944 -2.2642 2.62555 0
M  V30 4672 C 453.005 -1.95049 3.82432 0
M  V30 4673 C 452.238 -3.15991 4.30099 0
M  V30 4674 O 452.461 -4.28015 3.7704 0
M  V30 4675 O 451.395 -2.99403 5.22151 0
M  V30 4676 H 455.221 -0.557549 2.98538 0
M  V30 4677 H 452.806 -0.209413 1.47925 0
M  V30 4678 H 454.688 -3.01009 2.9491 0
M  V30 4679 H 453.363 -2.69306 1.796 0
M  V30 4680 H 452.27 -1.17904 3.55034 0
M  V30 4681 H 453.603 -1.56992 4.66491 0
M  V30 4682 N 455.255 -1.55392 -0.262866 0
M  V30 4683 C 456.532 -1.67204 -1.01499 0
M  V30 4684 C 456.912 -0.545186 -2.03939 0
M  V30 4685 O 456.26 0.453467 -2.23955 0
M  V30 4686 C 456.47 -3.06847 -1.6627 0
M  V30 4687 C 457.818 -3.64928 -2.17054 0
M  V30 4688 O 458.842 -3.09545 -1.76239 0
M  V30 4689 O 457.701 -4.61984 -2.91947 0
M  V30 4690 H 454.795 -0.679467 -0.471438 0
M  V30 4691 H 457.341 -1.67729 -0.257918 0
M  V30 4692 H 456.113 -3.80309 -0.920915 0
M  V30 4693 H 455.736 -3.10266 -2.48638 0
M  V30 4694 N 456.733 0.527833 -1.48498 0
M  V30 4695 C 457.683 1.62844 -1.5958 0
M  V30 4696 C 458.667 1.54397 -0.452809 0
M  V30 4697 O 459.859 1.62381 -0.704364 0
M  V30 4698 C 456.988 3.01557 -1.64067 0
M  V30 4699 C 456.074 3.151 -2.83853 0
M  V30 4700 N 456.465 2.9861 -4.08247 0
M  V30 4701 C 454.763 3.46158 -2.8123 0
M  V30 4702 C 455.464 3.15626 -4.88626 0
M  V30 4703 N 454.44 3.43298 -4.21483 0
M  V30 4704 H 458.242 1.48708 -2.53502 0
M  V30 4705 H 455.756 0.733343 -1.44899 0
M  V30 4706 H 457.753 3.8062 -1.70101 0
M  V30 4707 H 456.413 3.16783 -0.712636 0
M  V30 4708 H 457.424 2.75329 -4.3865 0
M  V30 4709 H 454.101 3.67728 -1.97692 0
M  V30 4710 H 455.491 3.07596 -5.97356 0
M  V30 4711 N 458.211 1.37122 0.776871 0
M  V30 4712 C 459.627 1.1781 1.07671 0
M  V30 4713 C 459.827 0.0107454 2.01497 0
M  V30 4714 O 458.883 -0.650756 2.4397 0
M  V30 4715 C 460.196 2.49451 1.67913 0
M  V30 4716 C 461.744 2.55927 1.80195 0
M  V30 4717 C 462.219 3.87686 2.43851 0
M  V30 4718 N 463.71 3.891 2.51307 0
M  V30 4719 C 464.445 4.87797 3.014 0
M  V30 4720 N 463.941 5.96888 3.51705 0
M  V30 4721 N 465.734 4.75205 3.00227 0
M  V30 4722 H 457.885 2.11843 0.153778 0
M  V30 4723 H 460.148 0.938927 0.130844 0
M  V30 4724 H 459.854 3.35207 1.06439 0
M  V30 4725 H 459.728 2.66169 2.67271 0
M  V30 4726 H 462.115 1.70582 2.40803 0
M  V30 4727 H 462.196 2.43097 0.796069 0
M  V30 4728 H 461.84 4.73444 1.83884 0
M  V30 4729 H 461.77 3.97817 3.45035 0
M  V30 4730 H 464.261 3.10293 2.157 0
M  V30 4731 H 464.574 6.68155 3.88316 0
M  V30 4732 H 462.919 6.0054 3.49824 0
M  V30 4733 H 466.11 3.89103 2.60224 0
M  V30 4734 H 466.283 5.52279 3.38957 0
M  V30 4735 N 459.689 -1.00246 1.21608 0
M  V30 4736 C 460.637 -2.11193 0.97469 0
M  V30 4737 C 461.631 -1.69216 -0.0789303 0
M  V30 4738 O 462.837 -1.79853 0.0726806 0
M  V30 4739 H 459.212 -0.690455 0.297953 0
M  V30 4740 H 461.183 -2.2873 1.91638 0
M  V30 4741 C 459.932 -3.43182 0.558717 0
M  V30 4742 H 459.255 -3.75918 1.3611 0
M  V30 4743 H 460.695 -4.21823 0.429154 0
M  V30 4744 C 459.154 -3.28882 -0.730648 0
M  V30 4745 O 459.684 -3.59835 -1.78554 0
M  V30 4746 N 457.89 -2.8209 -0.698131 0
M  V30 4747 H 457.437 -2.57099 0.16061 0
M  V30 4748 H 457.395 -2.72903 -1.56113 0
M  V30 4749 N 461.167 -1.02423 -1.1978 0
M  V30 4750 C 462.097 -0.62157 -2.25075 0
M  V30 4751 C 463.078 0.367148 -1.6609 0
M  V30 4752 O 464.263 0.250892 -1.92573 0
M  V30 4753 C 461.393 0.0331826 -3.47284 0
M  V30 4754 C 460.347 -0.877323 -4.18912 0
M  V30 4755 C 459.673 -0.0879296 -5.34628 0
M  V30 4756 C 460.973 -2.18892 -4.74219 0
M  V30 4757 H 462.667 -1.50179 -2.59011 0
M  V30 4758 H 460.213 -0.723547 -1.24502 0
M  V30 4759 H 462.166 0.326488 -4.20133 0
M  V30 4760 H 460.89 0.948164 -3.12534 0
M  V30 4761 H 459.549 -1.15475 -3.47938 0
M  V30 4762 H 459.197 0.828941 -4.96123 0
M  V30 4763 H 458.897 -0.694359 -5.83483 0
M  V30 4764 H 460.421 0.198743 -6.10276 0
M  V30 4765 H 461.835 -1.95746 -5.38847 0
M  V30 4766 H 460.232 -2.74686 -5.33542 0
M  V30 4767 H 461.302 -2.84674 -3.92541 0
M  V30 4768 N 462.645 1.35699 -0.801477 0
M  V30 4769 C 464.056 1.81415 -0.441073 0
M  V30 4770 C 464.407 1.66595 1.03636 0
M  V30 4771 O 463.532 1.19369 1.80499 0
M  V30 4772 C 464.127 3.29369 -0.793819 0
M  V30 4773 C 462.686 3.73248 -0.486083 0
M  V30 4774 C 461.833 2.57775 -1.02213 0
M  V30 4775 H 464.784 1.23749 -0.993572 0
M  V30 4776 H 464.805 3.80395 -0.0894158 0
M  V30 4777 H 464.317 3.40123 -1.86917 0
M  V30 4778 H 462.418 3.68046 0.580735 0
M  V30 4779 H 462.531 4.68222 -1.01513 0
M  V30 4780 H 460.895 2.50788 -0.444712 0
M  V30 4781 H 461.678 2.71309 -2.10348 0
M  V30 4782 N 464.123 0.554532 1.47522 0
M  V30 4783 C 465.4 -0.0360704 1.95567 0
M  V30 4784 C 465.78 -1.48828 1.49711 0
M  V30 4785 O 465.128 -2.16366 0.734717 0
M  V30 4786 C 465.338 0.106631 3.48837 0
M  V30 4787 C 466.686 -0.0400899 4.24581 0
M  V30 4788 O 467.71 0.0340453 3.56184 0
M  V30 4789 O 466.569 -0.199111 5.46137 0
M  V30 4790 H 463.663 -0.0656294 0.824392 0
M  V30 4791 H 466.209 0.620867 1.57935 0
M  V30 4792 H 464.981 1.11727 3.7501 0
M  V30 4793 H 464.604 -0.58804 3.93227 0
M  V30 4794 N 465.601 -1.54893 0.290851 0
M  V30 4795 C 466.531 -2.26103 -0.583084 0
M  V30 4796 C 467.512 -1.25684 -1.14619 0
M  V30 4797 O 468.697 -1.54436 -1.17741 0
M  V30 4798 C 465.827 -2.99409 -1.75987 0
M  V30 4799 C 464.781 -4.0689 -1.32758 0
M  V30 4800 C 464.107 -4.67856 -2.58872 0
M  V30 4801 C 465.407 -5.20215 -0.46624 0
M  V30 4802 H 467.101 -2.99398 0.0108214 0
M  V30 4803 H 464.647 -1.43998 0.00664468 0
M  V30 4804 H 466.6 -3.47943 -2.37727 0
M  V30 4805 H 465.324 -2.23675 -2.37985 0
M  V30 4806 H 463.983 -3.59191 -0.733299 0
M  V30 4807 H 463.631 -3.88772 -3.19163 0
M  V30 4808 H 463.331 -5.40438 -2.30653 0
M  V30 4809 H 464.855 -5.19147 -3.21433 0
M  V30 4810 H 466.269 -5.64704 -0.989047 0
M  V30 4811 H 464.666 -5.99455 -0.27826 0
M  V30 4812 H 465.736 -4.82198 0.511173 0
M  V30 4813 N 467.08 -0.0183926 -1.57589 0
M  V30 4814 C 468.326 0.663543 -1.91638 0
M  V30 4815 C 468.659 1.72392 -0.894134 0
M  V30 4816 O 467.934 1.94316 0.0846449 0
M  V30 4817 C 468.217 1.28984 -3.36207 0
M  V30 4818 C 468.07 0.239761 -4.49161 0
M  V30 4819 C 469.389 2.2109 -3.80536 0
M  V30 4820 H 466.508 0.239746 -0.696915 0
M  V30 4821 H 469.15 -0.073456 -1.89858 0
M  V30 4822 H 467.3 1.91799 -3.37854 0
M  V30 4823 H 468.972 -0.390119 -4.59647 0
M  V30 4824 H 467.215 -0.435972 -4.31604 0
M  V30 4825 H 467.886 0.717383 -5.47319 0
M  V30 4826 H 470.362 1.68273 -3.80557 0
M  V30 4827 H 469.238 2.61869 -4.82406 0
M  V30 4828 H 469.499 3.09764 -3.15434 0
M  V30 4829 N 468.558 1.5553 0.254621 0
M  V30 4830 C 469.786 1.81046 1.00149 0
M  V30 4831 C 470.201 0.593047 1.79244 0
M  V30 4832 O 469.558 -0.438196 1.77161 0
M  V30 4833 C 469.609 3.04684 1.94551 0
M  V30 4834 O 469.33 4.21725 1.18658 0
M  V30 4835 C 470.831 3.42943 2.80901 0
M  V30 4836 H 468.051 0.602653 0.295044 0
M  V30 4837 H 470.595 2.02576 0.279842 0
M  V30 4838 H 468.75 2.85226 2.62154 0
M  V30 4839 H 469.164 4.91746 1.82445 0
M  V30 4840 H 470.638 4.32576 3.42902 0
M  V30 4841 H 471.115 2.63176 3.51617 0
M  V30 4842 H 471.721 3.64724 2.18762 0
M  V30 4843 N 470.036 -0.519951 1.48776 0
M  V30 4844 C 471.282 -1.27711 1.57536 0
M  V30 4845 C 471.615 -1.92547 0.252866 0
M  V30 4846 O 470.89 -1.7979 -0.742021 0
M  V30 4847 C 471.173 -2.35875 2.72094 0
M  V30 4848 C 471.026 -1.75664 4.1408 0
M  V30 4849 C 472.345 -3.37575 2.82367 0
M  V30 4850 H 469.464 -0.462971 0.573434 0
M  V30 4851 H 472.106 -0.578194 1.80989 0
M  V30 4852 H 470.256 -2.95488 2.52228 0
M  V30 4853 H 471.928 -1.20025 4.45412 0
M  V30 4854 H 470.171 -1.06154 4.20611 0
M  V30 4855 H 470.842 -2.54029 4.90075 0
M  V30 4856 H 473.318 -2.87929 3.00393 0
M  V30 4857 H 472.194 -4.1064 3.64233 0
M  V30 4858 H 472.455 -3.98743 1.90936 0
M  V30 4859 N 471.514 -1.37532 -0.769588 0
M  V30 4860 C 472.462 -1.33561 -1.90432 0
M  V30 4861 C 473.456 -0.224027 -1.67912 0
M  V30 4862 O 474.662 -0.392174 -1.75676 0
M  V30 4863 H 471.037 -0.416279 -0.626271 0
M  V30 4864 H 473.008 -2.29348 -1.90899 0
M  V30 4865 C 471.757 -1.16162 -3.27722 0
M  V30 4866 H 471.08 -2.00951 -3.45628 0
M  V30 4867 H 472.52 -1.17434 -4.07413 0
M  V30 4868 C 470.979 0.132583 -3.36639 0
M  V30 4869 O 471.509 1.11539 -3.85904 0
M  V30 4870 N 469.715 0.184013 -2.90017 0
M  V30 4871 H 469.262 -0.616415 -2.50116 0
M  V30 4872 H 469.22 1.04956 -2.96364 0
M  V30 4873 N 472.992 0.995999 -1.22138 0
M  V30 4874 C 473.942 2.06988 -0.956042 0
M  V30 4875 C 474.926 1.60636 0.0921576 0
M  V30 4876 O 476.118 1.76607 -0.117958 0
M  V30 4877 C 473.247 3.39148 -0.532335 0
M  V30 4878 C 472.333 3.92142 -1.61509 0
M  V30 4879 N 472.724 4.18397 -2.84214 0
M  V30 4880 C 471.022 4.20514 -1.48606 0
M  V30 4881 C 471.723 4.61425 -3.54206 0
M  V30 4882 N 470.699 4.64934 -2.81669 0
M  V30 4883 H 474.501 2.25223 -1.88816 0
M  V30 4884 H 472.015 1.17748 -1.11845 0
M  V30 4885 H 474.012 4.15642 -0.323574 0
M  V30 4886 H 472.672 3.22314 0.392921 0
M  V30 4887 H 473.683 4.06682 -3.20671 0
M  V30 4888 H 470.36 4.12769 -0.626762 0
M  V30 4889 H 471.75 4.90387 -4.59315 0
M  V30 4890 N 474.47 1.03057 1.19235 0
M  V30 4891 C 475.4 0.633497 2.24742 0
M  V30 4892 C 476.381 -0.358335 1.66283 0
M  V30 4893 O 477.566 -0.240676 1.92703 0
M  V30 4894 C 474.696 -0.0147648 3.47297 0
M  V30 4895 C 473.65 0.899527 4.18441 0
M  V30 4896 C 472.976 0.116281 5.34574 0
M  V30 4897 C 474.276 2.21404 4.73051 0
M  V30 4898 H 475.97 1.5155 2.58211 0
M  V30 4899 H 473.516 0.73014 1.24117 0
M  V30 4900 H 475.469 -0.304202 4.20301 0
M  V30 4901 H 474.193 -0.931577 3.13032 0
M  V30 4902 H 472.852 1.17319 3.47321 0
M  V30 4903 H 472.5 -0.802619 4.96555 0
M  V30 4904 H 472.2 0.725293 5.83107 0
M  V30 4905 H 473.724 -0.166376 6.10373 0
M  V30 4906 H 475.138 1.98601 5.37802 0
M  V30 4907 H 473.535 2.77512 5.32078 0
M  V30 4908 H 474.605 2.86752 3.91026 0
M  V30 4909 N 475.948 -1.35272 0.808662 0
M  V30 4910 C 477.225 -1.93077 0.313181 0
M  V30 4911 C 477.605 -1.73847 -1.19752 0
M  V30 4912 O 476.953 -1.1087 -1.998 0
M  V30 4913 C 477.163 -3.41347 0.726859 0
M  V30 4914 C 478.511 -4.18493 0.717532 0
M  V30 4915 O 479.535 -3.4987 0.668535 0
M  V30 4916 O 478.394 -5.40937 0.777779 0
M  V30 4917 H 475.488 -0.822885 0.0824018 0
M  V30 4918 H 478.034 -1.44335 0.892499 0
M  V30 4919 H 476.806 -3.49082 1.76797 0
M  V30 4920 H 476.429 -3.97411 0.122461 0
M  V30 4921 N 477.426 -0.562348 -1.47226 0
M  V30 4922 C 478.674 -0.0401371 -2.0206 0
M  V30 4923 C 478.995 1.3165 -1.43852 0
M  V30 4924 O 478.265 1.85976 -0.615599 0
M  V30 4925 H 476.845 -0.0118479 -0.746906 0
M  V30 4926 H 479.507 -0.73352 -1.8057 0
M  V30 4927 H 478.603 0.0441254 -3.12069 0
M  V30 4928 N 478.904 1.54736 -0.299062 0
M  V30 4929 C 480.153 1.99279 0.311549 0
M  V30 4930 C 480.466 1.19107 1.55154 0
M  V30 4931 O 481.672 1.53908 2.23662 0
M  V30 4932 C 480.128 3.54768 0.605632 0
M  V30 4933 C 479.736 4.43746 -0.615914 0
M  V30 4934 C 481.48 4.07841 1.17754 0
M  V30 4935 C 479.387 5.90663 -0.29509 0
M  V30 4936 H 478.317 0.744359 0.120187 0
M  V30 4937 H 480.968 1.78919 -0.407464 0
M  V30 4938 H 479.35 3.71021 1.38419 0
M  V30 4939 H 480.524 4.39267 -1.39218 0
M  V30 4940 H 478.839 4.01434 -1.10633 0
M  V30 4941 H 481.436 5.15174 1.43179 0
M  V30 4942 H 481.779 3.58324 2.11918 0
M  V30 4943 H 482.312 3.95123 0.460739 0
M  V30 4944 H 479.051 6.44325 -1.20524 0
M  V30 4945 H 478.571 5.98155 0.44394 0
M  V30 4946 H 480.25 6.46916 0.104048 0
M  V30 4947 N 480.382 0.0267497 1.57577 0
M  V30 4948 C 481.628 -0.647596 1.92815 0
M  V30 4949 C 481.983 -1.69872 0.903396 0
M  V30 4950 O 481.276 -1.91429 -0.0808881 0
M  V30 4951 C 481.47 -1.30914 3.3256 0
M  V30 4952 C 481.299 -0.323621 4.48534 0
M  V30 4953 C 480.069 0.0756607 5.05243 0
M  V30 4954 C 482.267 0.42112 5.12573 0
M  V30 4955 N 480.249 1.0566 6.04739 0
M  V30 4956 C 481.62 1.25589 6.07147 0
M  V30 4957 C 483.675 0.482077 4.95561 0
M  V30 4958 C 482.378 2.1461 6.86538 0
M  V30 4959 C 484.404 1.35962 5.75559 0
M  V30 4960 C 483.766 2.18217 6.69747 0
M  V30 4961 H 479.865 -0.209357 0.753454 0
M  V30 4962 H 482.449 0.0933695 1.94476 0
M  V30 4963 H 480.62 -2.02026 3.31723 0
M  V30 4964 H 482.352 -1.94033 3.55153 0
M  V30 4965 H 479.107 -0.298294 4.7266 0
M  V30 4966 H 479.531 1.54324 6.59176 0
M  V30 4967 H 484.173 -0.139609 4.22569 0
M  V30 4968 H 481.891 2.77835 7.58837 0
M  V30 4969 H 485.477 1.41105 5.6443 0
M  V30 4970 H 484.357 2.85022 7.3057 0
M  V30 4971 N 481.861 -1.55662 -0.24637 0
M  V30 4972 C 483.089 -1.81575 -0.991876 0
M  V30 4973 C 483.504 -0.602545 -1.78927 0
M  V30 4974 O 482.861 0.428795 -1.77391 0
M  V30 4975 C 482.912 -3.05711 -1.92933 0
M  V30 4976 O 482.633 -4.22348 -1.1642 0
M  V30 4977 C 484.134 -3.44428 -2.79078 0
M  V30 4978 H 481.354 -0.604209 -0.291844 0
M  V30 4979 H 483.898 -2.02722 -0.269095 0
M  V30 4980 H 482.053 -2.86612 -2.60638 0
M  V30 4981 H 482.467 -4.92706 -1.79835 0
M  V30 4982 H 483.941 -4.34388 -3.40603 0
M  V30 4983 H 484.418 -2.65037 -3.50217 0
M  V30 4984 H 485.024 -3.65879 -2.16824 0
M  V30 4985 N 483.339 0.512053 -1.4905 0
M  V30 4986 C 484.616 1.27337 -1.48474 0
M  V30 4987 C 484.996 2.1009 -0.206301 0
M  V30 4988 O 484.344 2.136 0.811609 0
M  V30 4989 C 484.554 2.13954 -2.75726 0
M  V30 4990 C 485.902 2.73507 -3.24776 0
M  V30 4991 O 486.926 2.24229 -2.76767 0
M  V30 4992 O 485.785 3.63186 -4.08361 0
M  V30 4993 H 482.879 0.575652 -0.593762 0
M  V30 4994 H 485.425 0.527232 -1.61302 0
M  V30 4995 H 484.197 1.52709 -3.60272 0
M  V30 4996 H 483.82 2.95782 -2.65705 0
M  V30 4997 N 484.817 1.37938 0.762283 0
M  V30 4998 C 486.094 1.24196 1.51112 0
M  V30 4999 C 486.474 -0.160409 2.1049 0
M  V30 5000 O 485.822 -1.16904 1.96331 0
M  V30 5001 C 486.032 2.34537 2.58445 0
M  V30 5002 C 487.38 2.7254 3.25588 0
M  V30 5003 O 488.404 2.33783 2.68745 0
M  V30 5004 O 487.263 3.39343 4.28379 0
M  V30 5005 H 484.357 0.485175 0.669727 0
M  V30 5006 H 486.903 1.49743 0.798438 0
M  V30 5007 H 485.675 3.28406 2.12756 0
M  V30 5008 H 485.298 2.10505 3.37303 0
M  V30 5009 N 486.295 -0.989507 1.22664 0
M  V30 5010 C 487.542 -1.72953 1.05325 0
M  V30 5011 C 487.87 -1.90104 -0.411168 0
M  V30 5012 O 487.125 -1.44386 -1.32103 0
M  V30 5013 C 487.424 -3.13649 1.71345 0
M  V30 5014 C 487.09 -3.16403 3.21248 0
M  V30 5015 C 485.752 -3.16862 3.62149 0
M  V30 5016 C 488.104 -3.12428 4.17179 0
M  V30 5017 C 485.432 -3.11051 4.97458 0
M  V30 5018 C 487.784 -3.08159 5.52468 0
M  V30 5019 C 486.448 -3.06935 5.92746 0
M  V30 5020 H 485.718 -0.632881 0.385412 0
M  V30 5021 H 488.365 -1.15863 1.52473 0
M  V30 5022 H 486.67 -3.74069 1.16532 0
M  V30 5023 H 488.367 -3.69658 1.55416 0
M  V30 5024 H 484.957 -3.16798 2.88682 0
M  V30 5025 H 489.141 -3.11221 3.86595 0
M  V30 5026 H 484.397 -3.0845 5.27891 0
M  V30 5027 H 488.571 -3.04039 6.26525 0
M  V30 5028 H 486.198 -3.02186 6.97558 0
M  V30 5029 N 487.773 -1.03688 -1.18687 0
M  V30 5030 C 488.723 -0.595067 -2.20098 0
M  V30 5031 C 489.707 0.360465 -1.5681 0
M  V30 5032 O 490.899 0.180136 -1.76081 0
M  V30 5033 C 488.028 0.0444495 -3.43271 0
M  V30 5034 C 487.114 -0.934002 -4.13687 0
M  V30 5035 N 487.505 -2.09957 -4.60165 0
M  V30 5036 C 485.803 -0.759177 -4.39491 0
M  V30 5037 C 486.504 -2.71735 -5.1433 0
M  V30 5038 N 485.48 -1.99638 -5.05614 0
M  V30 5039 H 489.282 -1.48336 -2.5372 0
M  V30 5040 H 486.796 -0.904949 -1.3485 0
M  V30 5041 H 488.793 0.37864 -4.15177 0
M  V30 5042 H 487.453 0.928325 -3.11147 0
M  V30 5043 H 488.464 -2.47863 -4.54735 0
M  V30 5044 H 485.141 0.0749292 -4.17433 0
M  V30 5045 H 486.531 -3.70492 -5.60523 0
M  V30 5046 N 489.251 1.34841 -0.815825 0
M  V30 5047 C 490.201 2.27075 -0.205169 0
M  V30 5048 C 491.185 1.48205 0.626414 0
M  V30 5049 O 492.377 1.70306 0.482157 0
M  V30 5050 C 489.506 3.37322 0.637871 0
M  V30 5051 C 488.592 4.23609 -0.203948 0
M  V30 5052 N 488.983 4.89558 -1.27149 0
M  V30 5053 C 487.281 4.45998 0.0128971 0
M  V30 5054 C 487.982 5.53597 -1.7862 0
M  V30 5055 N 486.958 5.32535 -1.0912 0
M  V30 5056 H 490.76 2.75563 -1.02187 0
M  V30 5057 H 488.274 1.48477 -0.657912 0
M  V30 5058 H 490.271 4.02359 1.09146 0
M  V30 5059 H 488.931 2.90385 1.45281 0
M  V30 5060 H 489.942 4.9077 -1.65423 0
M  V30 5061 H 486.619 4.09837 0.79624 0
M  V30 5062 H 488.009 6.16184 -2.67892 0
M  V30 5063 N 490.729 0.570148 1.46925 0
M  V30 5064 C 491.639 -0.173061 2.33961 0
M  V30 5065 C 492.655 -0.898825 1.48987 0
M  V30 5066 O 493.831 -0.864825 1.81887 0
M  V30 5067 C 490.896 -1.18177 3.25937 0
M  V30 5068 C 489.957 -0.462041 4.26806 0
M  V30 5069 C 489.19 -1.4227 5.14388 0
M  V30 5070 O 489.413 -2.65842 5.04662 0
M  V30 5071 O 488.347 -0.940127 5.94513 0
M  V30 5072 H 492.173 0.541216 2.98839 0
M  V30 5073 H 489.758 0.330647 1.45695 0
M  V30 5074 H 491.64 -1.76372 3.82715 0
M  V30 5075 H 490.315 -1.87774 2.63671 0
M  V30 5076 H 489.222 0.161429 3.73752 0
M  V30 5077 H 490.555 0.192719 4.91823 0
M  V30 5078 N 492.207 -1.54576 0.307264 0
M  V30 5079 C 493.435 -2.04675 -0.302597 0
M  V30 5080 C 493.85 -1.18425 -1.47041 0
M  V30 5081 O 493.207 -0.211257 -1.81273 0
M  V30 5082 C 493.258 -3.53575 -0.752801 0
M  V30 5083 O 492.979 -4.36547 0.368536 0
M  V30 5084 C 494.48 -4.19699 -1.42717 0
M  V30 5085 H 491.7 -0.66786 -0.0648374 0
M  V30 5086 H 494.244 -1.99516 0.448716 0
M  V30 5087 H 492.399 -3.59074 -1.45412 0
M  V30 5088 H 492.813 -5.24497 0.0168937 0
M  V30 5089 H 494.287 -5.25388 -1.69327 0
M  V30 5090 H 494.764 -3.69815 -2.36925 0
M  V30 5091 H 495.37 -4.18293 -0.768856 0
M  V30 5092 N 493.685 -0.035106 -1.57561 0
M  V30 5093 C 495.101 0.321334 -1.56332 0
M  V30 5094 C 495.301 1.72509 -1.04129 0
M  V30 5095 O 494.357 2.4287 -0.690694 0
M  V30 5096 C 495.67 0.164469 -3.0025 0
M  V30 5097 C 497.218 0.236786 -3.12103 0
M  V30 5098 C 497.693 0.10864 -4.57871 0
M  V30 5099 N 499.184 0.165433 -4.62904 0
M  V30 5100 C 499.919 0.0901506 -5.73329 0
M  V30 5101 N 499.415 -0.0365606 -6.9279 0
M  V30 5102 N 501.208 0.144572 -5.61914 0
M  V30 5103 H 493.359 -0.952976 -1.89821 0
M  V30 5104 H 495.622 -0.368537 -0.873432 0
M  V30 5105 H 495.328 -0.802746 -3.42416 0
M  V30 5106 H 495.202 0.932194 -3.655 0
M  V30 5107 H 497.589 1.19446 -2.69845 0
M  V30 5108 H 497.67 -0.561419 -2.49563 0
M  V30 5109 H 497.314 -0.845644 -5.00811 0
M  V30 5110 H 497.244 0.925786 -5.18398 0
M  V30 5111 H 499.735 0.263269 -3.76982 0
M  V30 5112 H 500.048 -0.0871487 -7.72751 0
M  V30 5113 H 498.393 -0.0714256 -6.94963 0
M  V30 5114 H 501.584 0.242006 -4.67474 0
M  V30 5115 H 501.757 0.0824413 -6.47948 0
M  V30 5116 N 495.163 1.55791 0.238111 0
M  V30 5117 C 496.409 1.78297 0.966337 0
M  V30 5118 C 496.742 0.601903 1.84637 0
M  V30 5119 O 496.017 -0.399499 1.90353 0
M  V30 5120 C 496.3 3.10758 1.81939 0
M  V30 5121 C 496.153 4.39283 0.966958 0
M  V30 5122 C 497.472 3.39519 2.80027 0
M  V30 5123 H 494.591 0.648654 0.349882 0
M  V30 5124 H 497.233 1.88525 0.236253 0
M  V30 5125 H 495.383 3.02168 2.44185 0
M  V30 5126 H 497.055 4.59873 0.362514 0
M  V30 5127 H 495.298 4.32948 0.271669 0
M  V30 5128 H 495.969 5.28368 1.59784 0
M  V30 5129 H 498.445 3.48128 2.27917 0
M  V30 5130 H 497.321 4.33402 3.36829 0
M  V30 5131 H 497.582 2.60864 3.56934 0
M  V30 5132 N 496.642 -0.504142 1.49319 0
M  V30 5133 C 497.87 -1.28256 1.62351 0
M  V30 5134 C 498.285 -1.86502 0.293682 0
M  V30 5135 O 497.642 -1.67678 -0.720449 0
M  V30 5136 C 497.693 -2.41507 2.68992 0
M  V30 5137 O 497.414 -1.85656 3.96817 0
M  V30 5138 C 498.915 -3.32929 2.927 0
M  V30 5139 H 496.135 -0.389115 0.546654 0
M  V30 5140 H 498.679 -0.605531 1.95329 0
M  V30 5141 H 496.834 -3.05046 2.38801 0
M  V30 5142 H 497.248 -2.59981 4.55533 0
M  V30 5143 H 498.722 -4.0868 3.71058 0
M  V30 5144 H 499.199 -3.89733 2.02496 0
M  V30 5145 H 499.805 -2.75158 3.24296 0
M  V30 5146 N 498.12 -1.38341 -0.754957 0
M  V30 5147 C 499.05 -1.38176 -1.88227 0
M  V30 5148 C 500.031 -0.247873 -1.68284 0
M  V30 5149 O 501.216 -0.45075 -1.88896 0
M  V30 5150 C 498.346 -1.20471 -3.25736 0
M  V30 5151 C 497.3 -2.3105 -3.60278 0
M  V30 5152 C 496.626 -1.98452 -4.96509 0
M  V30 5153 C 497.926 -3.73305 -3.65295 0
M  V30 5154 H 499.62 -2.32512 -1.88622 0
M  V30 5155 H 497.166 -1.1192 -0.906082 0
M  V30 5156 H 499.119 -1.18982 -4.04254 0
M  V30 5157 H 497.843 -0.225965 -3.25817 0
M  V30 5158 H 496.502 -2.31723 -2.84078 0
M  V30 5159 H 496.15 -0.990641 -4.93148 0
M  V30 5160 H 495.85 -2.7251 -5.20588 0
M  V30 5161 H 497.374 -1.98578 -5.77407 0
M  V30 5162 H 498.788 -3.7467 -4.3393 0
M  V30 5163 H 497.185 -4.46557 -4.00883 0
M  V30 5164 H 498.255 -4.05719 -2.65556 0
M  V30 5165 N 499.598 0.982988 -1.23187 0
M  V30 5166 C 500.826 1.75921 -1.08901 0
M  V30 5167 C 501.241 1.85341 0.359719 0
M  V30 5168 O 500.598 1.33072 1.24892 0
M  V30 5169 C 500.649 3.18742 -1.70545 0
M  V30 5170 O 500.37 3.09814 -3.09753 0
M  V30 5171 C 501.871 4.1277 -1.61667 0
M  V30 5172 H 499.091 0.552166 -0.381252 0
M  V30 5173 H 501.635 1.23516 -1.62985 0
M  V30 5174 H 499.79 3.68182 -1.20501 0
M  V30 5175 H 500.204 3.99703 -3.39614 0
M  V30 5176 H 501.678 5.10697 -2.09506 0
M  V30 5177 H 502.155 4.3542 -0.575009 0
M  V30 5178 H 502.761 3.69232 -2.11064 0
M  V30 5179 N 501.076 1.04316 1.18135 0
M  V30 5180 C 502.324 0.746542 1.87806 0
M  V30 5181 C 502.645 -0.728082 1.80898 0
M  V30 5182 O 501.915 -1.52554 1.22899 0
M  V30 5183 H 500.495 0.273157 0.695265 0
M  V30 5184 H 503.157 1.32044 1.43354 0
M  V30 5185 H 502.253 1.05362 2.93778 0
M  V30 5186 N 502.554 -1.34406 0.822964 0
M  V30 5187 C 503.464 -2.33298 0.246838 0
M  V30 5188 C 504.48 -1.62625 -0.618797 0
M  V30 5189 O 505.656 -1.94391 -0.526685 0
M  V30 5190 C 502.721 -3.41785 -0.581731 0
M  V30 5191 C 501.782 -4.28206 0.306309 0
M  V30 5192 C 501.015 -5.31512 -0.48281 0
M  V30 5193 O 501.238 -5.43973 -1.71607 0
M  V30 5194 O 500.172 -6.01749 0.134884 0
M  V30 5195 H 503.998 -2.84401 1.06534 0
M  V30 5196 H 501.583 -1.37466 0.585108 0
M  V30 5197 H 503.465 -4.08028 -1.05313 0
M  V30 5198 H 502.14 -2.92925 -1.37756 0
M  V30 5199 H 501.047 -3.64885 0.825199 0
M  V30 5200 H 502.38 -4.80507 1.06649 0
M  V30 5201 N 504.032 -0.577932 -1.46621 0
M  V30 5202 C 504.964 0.195801 -2.28362 0
M  V30 5203 C 505.977 0.859983 -1.38232 0
M  V30 5204 O 507.166 0.730349 -1.62875 0
M  V30 5205 C 504.266 1.29639 -3.13124 0
M  V30 5206 C 503.439 0.725049 -4.31349 0
M  V30 5207 C 502.498 1.71274 -4.97546 0
M  V30 5208 O 501.524 1.25067 -5.5529 0
M  V30 5209 N 502.726 3.04672 -4.94121 0
M  V30 5210 H 505.491 -0.505468 -2.95407 0
M  V30 5211 H 503.052 -0.415381 -1.56481 0
M  V30 5212 H 505.044 1.95631 -3.54275 0
M  V30 5213 H 503.614 1.90059 -2.48186 0
M  V30 5214 H 502.834 -0.112205 -3.9404 0
M  V30 5215 H 504.122 0.323034 -5.07774 0
M  V30 5216 H 503.52 3.4484 -4.48444 0
M  V30 5217 H 502.077 3.66166 -5.39227 0
M  V30 5218 N 505.51 1.54411 -0.315457 0
M  V30 5219 C 506.42 2.27737 0.56329 0
M  V30 5220 C 507.436 1.31787 1.13614 0
M  V30 5221 O 508.612 1.64791 1.15784 0
M  V30 5222 C 505.677 3.01478 1.71207 0
M  V30 5223 C 504.738 4.12997 1.17185 0
M  V30 5224 C 503.971 4.83212 2.26588 0
M  V30 5225 O 504.194 4.52884 3.46775 0
M  V30 5226 O 503.128 5.70299 1.92463 0
M  V30 5227 H 506.954 3.03683 -0.0319614 0
M  V30 5228 H 504.539 1.49178 -0.0814188 0
M  V30 5229 H 506.421 3.47683 2.38106 0
M  V30 5230 H 505.096 2.28414 2.29366 0
M  V30 5231 H 504.003 3.71159 0.468174 0
M  V30 5232 H 505.336 4.8808 0.635501 0
M  V30 5233 N 506.988 0.0434614 1.5754 0
M  V30 5234 C 508.236 -0.630786 1.92004 0
M  V30 5235 C 508.557 -1.71836 0.921807 0
M  V30 5236 O 507.827 -1.9587 -0.034522 0
M  V30 5237 H 506.407 -0.235988 0.708745 0
M  V30 5238 H 509.069 0.0946462 1.9467 0
M  V30 5239 H 508.165 -1.07434 2.93026 0
M  V30 5240 N 508.466 -1.55915 -0.229846 0
M  V30 5241 C 509.696 -1.82352 -0.971152 0
M  V30 5242 C 510.104 -0.619231 -1.7878 0
M  V30 5243 O 509.447 0.421597 -1.78797 0
M  V30 5244 C 509.509 -3.02399 -1.9441 0
M  V30 5245 C 509.173 -4.37739 -1.31277 0
M  V30 5246 C 510.17 -5.15074 -0.706757 0
M  V30 5247 C 507.855 -4.84454 -1.32702 0
M  V30 5248 C 509.849 -6.37281 -0.123413 0
M  V30 5249 C 507.536 -6.06605 -0.739831 0
M  V30 5250 C 508.534 -6.82858 -0.139071 0
M  V30 5251 O 508.222 -8.027 0.439007 0
M  V30 5252 H 507.954 -0.61035 -0.290601 0
M  V30 5253 H 510.508 -2.03839 -0.252746 0
M  V30 5254 H 508.738 -2.76709 -2.70128 0
M  V30 5255 H 510.427 -3.15779 -2.55026 0
M  V30 5256 H 511.193 -4.80093 -0.688131 0
M  V30 5257 H 507.072 -4.25081 -1.78402 0
M  V30 5258 H 510.616 -6.96741 0.346124 0
M  V30 5259 H 506.513 -6.4106 -0.755841 0
M  V30 5260 H 507.281 -8.17824 0.332521 0
M  V30 5261 N 509.944 0.496216 -1.49584 0
M  V30 5262 C 511.174 1.27209 -1.62793 0
M  V30 5263 C 511.582 1.86799 -0.300476 0
M  V30 5264 O 510.925 1.68802 0.724674 0
M  V30 5265 C 510.987 2.43812 -2.64189 0
M  V30 5266 C 510.651 2.05055 -4.08414 0
M  V30 5267 C 511.648 1.58752 -4.9507 0
M  V30 5268 C 509.333 2.14543 -4.54177 0
M  V30 5269 C 511.327 1.22448 -6.25528 0
M  V30 5270 C 509.014 1.77851 -5.84647 0
M  V30 5271 C 510.012 1.31878 -6.70147 0
M  V30 5272 O 509.7 0.956834 -7.98185 0
M  V30 5273 H 509.432 0.391848 -0.550846 0
M  V30 5274 H 511.986 0.601712 -1.96389 0
M  V30 5275 H 510.216 3.13941 -2.25783 0
M  V30 5276 H 511.905 3.05829 -2.66877 0
M  V30 5277 H 512.671 1.50863 -4.60939 0
M  V30 5278 H 508.55 2.49277 -3.87791 0
M  V30 5279 H 512.094 0.864933 -6.92217 0
M  V30 5280 H 507.991 1.8539 -6.18305 0
M  V30 5281 H 508.759 1.08789 -8.11238 0
M  V30 5282 N 511.423 1.38739 0.74761 0
M  V30 5283 C 512.386 1.36241 1.84312 0
M  V30 5284 C 513.386 0.261811 1.58654 0
M  V30 5285 O 514.576 0.519031 1.66288 0
M  V30 5286 C 511.708 1.12253 3.21888 0
M  V30 5287 H 512.901 2.33712 1.87933 0
M  V30 5288 H 510.454 1.2412 0.949946 0
M  V30 5289 H 511.189 0.154133 3.23934 0
M  V30 5290 H 510.974 1.91943 3.41907 0
M  V30 5291 H 512.464 1.13215 4.0196 0
M  V30 5292 N 512.901 -0.976442 1.23707 0
M  V30 5293 C 514.149 -1.71487 1.06942 0
M  V30 5294 C 514.47 -1.9098 -0.393897 0
M  V30 5295 O 513.74 -1.48128 -1.28198 0
M  V30 5296 H 512.32 -0.635425 0.392739 0
M  V30 5297 H 514.982 -1.17515 1.55487 0
M  V30 5298 H 514.078 -2.70286 1.56051 0
M  V30 5299 N 514.379 -1.04941 -1.1758 0
M  V30 5300 C 515.609 -0.777166 -1.91425 0
M  V30 5301 C 516.017 0.670647 -1.76915 0
M  V30 5302 O 515.36 1.46965 -1.10213 0
M  V30 5303 C 515.422 -1.07495 -3.43052 0
M  V30 5304 C 515.086 -2.51844 -3.81345 0
M  V30 5305 C 516.083 -3.50047 -3.844 0
M  V30 5306 C 513.768 -2.86787 -4.12382 0
M  V30 5307 C 515.762 -4.81239 -4.17957 0
M  V30 5308 C 513.449 -4.18182 -4.45608 0
M  V30 5309 C 514.447 -5.15219 -4.48373 0
M  V30 5310 O 514.135 -6.44258 -4.80819 0
M  V30 5311 H 513.867 -0.282209 -0.614275 0
M  V30 5312 H 516.421 -1.40258 -1.50056 0
M  V30 5313 H 514.651 -0.392437 -3.84704 0
M  V30 5314 H 516.34 -0.78912 -3.98155 0
M  V30 5315 H 517.106 -3.24391 -3.60548 0
M  V30 5316 H 512.985 -2.11922 -4.09402 0
M  V30 5317 H 516.529 -5.56974 -4.2003 0
M  V30 5318 H 512.426 -4.43602 -4.68922 0
M  V30 5319 H 513.194 -6.49041 -4.98686 0
M  V30 5320 N 515.857 1.33968 -0.830081 0
M  V30 5321 C 517.273 1.51003 -0.516742 0
M  V30 5322 C 517.473 1.77286 0.957694 0
M  V30 5323 O 516.529 1.82797 1.74188 0
M  V30 5324 C 517.842 2.67036 -1.38247 0
M  V30 5325 C 519.39 2.80919 -1.38034 0
M  V30 5326 C 519.865 4.00004 -2.23071 0
M  V30 5327 N 521.356 4.07224 -2.20733 0
M  V30 5328 C 522.091 4.98541 -2.83275 0
M  V30 5329 N 521.587 5.95033 -3.54835 0
M  V30 5330 N 523.38 4.91469 -2.72791 0
M  V30 5331 H 515.531 1.15168 -1.78466 0
M  V30 5332 H 517.794 0.565443 -0.760906 0
M  V30 5333 H 517.5 2.54266 -2.42985 0
M  V30 5334 H 517.374 3.62226 -1.05225 0
M  V30 5335 H 519.761 2.93127 -0.340713 0
M  V30 5336 H 519.842 1.86517 -1.75057 0
M  V30 5337 H 519.486 3.88557 -3.27087 0
M  V30 5338 H 519.416 4.93634 -1.83394 0
M  V30 5339 H 521.907 3.38162 -1.68687 0
M  V30 5340 H 522.22 6.61357 -3.99784 0
M  V30 5341 H 520.565 5.95135 -3.58942 0
M  V30 5342 H 523.756 4.15048 -2.16456 0
M  V30 5343 H 523.929 5.62439 -3.21818 0
M  V30 5344 N 517.335 0.585699 1.46312 0
M  V30 5345 C 518.583 0.072278 2.01971 0
M  V30 5346 C 518.904 -1.29345 1.45928 0
M  V30 5347 O 518.174 -1.84973 0.645109 0
M  V30 5348 H 516.754 0.023729 0.746623 0
M  V30 5349 H 519.416 0.762155 1.7938 0
M  V30 5350 H 518.512 0.00552767 3.121 0
M  V30 5351 N 518.813 -1.54241 0.323641 0
M  V30 5352 C 520.061 -2.00174 -0.278359 0
M  V30 5353 C 520.382 -1.2134 -1.52648 0
M  V30 5354 O 519.652 -0.315244 -1.93347 0
M  V30 5355 H 518.232 -0.739463 -0.105845 0
M  V30 5356 H 520.894 -1.89864 0.440204 0
M  V30 5357 H 519.99 -3.07486 -0.5347 0
M  V30 5358 N 520.291 -0.0518155 -1.57515 0
M  V30 5359 C 521.254 0.907547 -2.10467 0
M  V30 5360 C 522.254 1.23947 -1.02439 0
M  V30 5361 O 523.444 1.17604 -1.2851 0
M  V30 5362 C 520.576 2.21723 -2.58944 0
M  V30 5363 H 521.769 0.44851 -2.96527 0
M  V30 5364 H 519.322 0.196598 -1.55059 0
M  V30 5365 H 520.057 2.72206 -1.76279 0
M  V30 5366 H 519.842 1.98935 -3.37886 0
M  V30 5367 H 521.332 2.90441 -3.00056 0
M  V30 5368 N 521.769 1.56035 0.221574 0
M  V30 5369 C 522.679 1.95581 1.29558 0
M  V30 5370 C 523.695 0.859639 1.51282 0
M  V30 5371 O 524.871 1.16321 1.64413 0
M  V30 5372 C 521.936 2.26447 2.62531 0
M  V30 5373 C 520.997 3.49632 2.4911 0
M  V30 5374 C 520.23 3.79017 3.75742 0
M  V30 5375 O 520.453 3.10077 4.78757 0
M  V30 5376 O 519.387 4.72507 3.72855 0
M  V30 5377 H 523.213 2.8711 0.990035 0
M  V30 5378 H 520.798 1.43244 0.424434 0
M  V30 5379 H 522.68 2.47494 3.41064 0
M  V30 5380 H 521.355 1.38092 2.92766 0
M  V30 5381 H 520.262 3.33864 1.68777 0
M  V30 5382 H 521.595 4.3837 2.23814 0
M  V30 5383 N 523.247 -0.488276 1.49845 0
M  V30 5384 C 524.21 -1.57069 1.66919 0
M  V30 5385 C 525.21 -1.51445 0.540479 0
M  V30 5386 O 526.4 -1.5437 0.807188 0
M  V30 5387 C 523.532 -2.96718 1.67844 0
M  V30 5388 H 524.725 -1.43254 2.63474 0
M  V30 5389 H 522.278 -0.713435 1.39068 0
M  V30 5390 H 523.013 -3.15996 0.7292 0
M  V30 5391 H 522.798 -3.02208 2.49826 0
M  V30 5392 H 524.288 -3.75335 1.83066 0
M  V30 5393 N 524.725 -1.39134 -0.740242 0
M  V30 5394 C 525.655 -1.40165 -1.86751 0
M  V30 5395 C 526.636 -0.265708 -1.68012 0
M  V30 5396 O 527.821 -0.47076 -1.88408 0
M  V30 5397 C 524.951 -1.2392 -3.2444 0
M  V30 5398 C 523.905 -2.34858 -3.57807 0
M  V30 5399 C 523.231 -2.03707 -4.94376 0
M  V30 5400 C 524.531 -3.77159 -3.61315 0
M  V30 5401 H 526.225 -2.345 -1.86145 0
M  V30 5402 H 523.771 -1.12875 -0.89416 0
M  V30 5403 H 525.724 -1.23263 -4.02969 0
M  V30 5404 H 524.448 -0.26051 -3.25559 0
M  V30 5405 H 523.107 -2.34723 -2.81604 0
M  V30 5406 H 522.755 -1.04289 -4.9207 0
M  V30 5407 H 522.455 -2.78016 -5.17669 0
M  V30 5408 H 523.979 -2.04691 -5.75268 0
M  V30 5409 H 525.393 -3.79252 -4.29931 0
M  V30 5410 H 523.79 -4.50784 -3.96124 0
M  V30 5411 H 524.86 -4.08513 -2.61238 0
M  V30 5412 N 526.204 0.969867 -1.24223 0
M  V30 5413 C 527.167 2.04564 -1.03373 0
M  V30 5414 C 528.167 1.60798 0.00819206 0
M  V30 5415 O 529.357 1.72641 -0.232567 0
M  V30 5416 C 526.489 3.36163 -0.566343 0
M  V30 5417 H 527.682 2.24494 -1.98853 0
M  V30 5418 H 525.235 1.1448 -1.06415 0
M  V30 5419 H 525.97 3.21925 0.391751 0
M  V30 5420 H 525.755 3.69273 -1.31834 0
M  V30 5421 H 527.245 4.1526 -0.441435 0
M  V30 5422 N 527.682 1.05563 1.17022 0
M  V30 5423 C 528.912 0.787307 1.91011 0
M  V30 5424 C 529.32 -0.661256 1.77268 0
M  V30 5425 O 528.663 -1.46379 1.10991 0
M  V30 5426 C 528.725 1.09313 3.42478 0
M  V30 5427 C 528.389 2.53863 3.80004 0
M  V30 5428 C 529.386 3.52081 3.82538 0
M  V30 5429 C 527.071 2.88969 4.10855 0
M  V30 5430 C 529.065 4.83449 4.15399 0
M  V30 5431 C 526.752 4.2054 4.43384 0
M  V30 5432 C 527.75 5.17589 4.45635 0
M  V30 5433 O 527.438 6.46799 4.77395 0
M  V30 5434 H 527.17 0.285463 0.61277 0
M  V30 5435 H 529.724 1.41051 1.49311 0
M  V30 5436 H 527.954 0.412833 3.8449 0
M  V30 5437 H 529.643 0.810224 3.97731 0
M  V30 5438 H 530.409 3.26299 3.58823 0
M  V30 5439 H 526.288 2.1409 4.08272 0
M  V30 5440 H 529.832 5.59194 4.1707 0
M  V30 5441 H 525.729 4.46083 4.66563 0
M  V30 5442 H 526.497 6.51677 4.95237 0
M  V30 5443 N 529.16 -1.33526 0.837174 0
M  V30 5444 C 530.388 -2.02047 0.445494 0
M  V30 5445 C 530.803 -1.62995 -0.952788 0
M  V30 5446 O 530.16 -0.842447 -1.61892 0
M  V30 5447 C 530.211 -3.57221 0.554577 0
M  V30 5448 O 529.932 -3.94863 1.89776 0
M  V30 5449 C 531.433 -4.43012 0.159634 0
M  V30 5450 H 528.653 -0.647221 0.177048 0
M  V30 5451 H 531.197 -1.70492 1.12928 0
M  V30 5452 H 529.352 -3.87315 -0.0812781 0
M  V30 5453 H 529.766 -4.89569 1.88208 0
M  V30 5454 H 531.24 -5.51253 0.28701 0
M  V30 5455 H 531.717 -4.29916 -0.898289 0
M  V30 5456 H 532.323 -4.18274 0.769855 0
M  V30 5457 N 530.638 -0.59345 -1.46 0
M  V30 5458 C 531.887 -0.0808084 -2.01538 0
M  V30 5459 C 532.2 1.29112 -1.46934 0
M  V30 5460 O 533.406 1.8957 -1.94359 0
M  V30 5461 C 531.862 -0.0938311 -3.59778 0
M  V30 5462 C 531.47 -1.46474 -4.23379 0
M  V30 5463 C 533.214 0.364306 -4.22934 0
M  V30 5464 C 531.121 -1.4349 -5.73729 0
M  V30 5465 H 530.051 -0.0264407 -0.753536 0
M  V30 5466 H 532.702 -0.746689 -1.67621 0
M  V30 5467 H 531.084 0.638427 -3.9082 0
M  V30 5468 H 532.258 -2.21758 -4.03931 0
M  V30 5469 H 530.573 -1.86379 -3.7236 0
M  V30 5470 H 533.17 0.405584 -5.3316 0
M  V30 5471 H 533.513 1.38409 -3.92618 0
M  V30 5472 H 534.046 -0.31423 -3.96557 0
M  V30 5473 H 530.785 -2.43184 -6.08722 0
M  V30 5474 H 530.305 -0.724431 -5.95409 0
M  V30 5475 H 531.984 -1.15243 -6.36654 0
M  V30 5476 N 532.116 1.54067 -0.331816 0
M  V30 5477 C 533.532 1.59587 0.0205388 0
M  V30 5478 C 533.732 1.34813 1.49759 0
M  V30 5479 O 532.788 1.13661 2.25471 0
M  V30 5480 C 534.101 2.97959 -0.405103 0
M  V30 5481 C 535.649 3.10964 -0.356454 0
M  V30 5482 C 536.124 4.51694 -0.757384 0
M  V30 5483 N 537.615 4.57709 -0.71111 0
M  V30 5484 C 538.35 5.64729 -0.993427 0
M  V30 5485 N 537.846 6.79652 -1.3433 0
M  V30 5486 N 539.639 5.54546 -0.918442 0
M  V30 5487 H 531.79 1.68426 -1.29407 0
M  V30 5488 H 534.053 0.78819 -0.526745 0
M  V30 5489 H 533.759 3.21115 -1.43451 0
M  V30 5490 H 533.633 3.76524 0.225692 0
M  V30 5491 H 536.02 2.87538 0.663763 0
M  V30 5492 H 536.101 2.34484 -1.02229 0
M  V30 5493 H 535.745 4.75853 -1.77555 0
M  V30 5494 H 535.675 5.26555 -0.0691444 0
M  V30 5495 H 538.166 3.75176 -0.452883 0
M  V30 5496 H 538.479 7.57221 -1.54388 0
M  V30 5497 H 536.824 6.81128 -1.38164 0
M  V30 5498 H 540.015 4.63641 -0.644536 0
M  V30 5499 H 540.188 6.37861 -1.14181 0
M  V30 5500 N 533.594 0.0601682 1.57485 0
M  V30 5501 C 535.01 -0.296422 1.56823 0
M  V30 5502 C 535.21 -1.70831 1.0686 0
M  V30 5503 O 534.266 -2.4174 0.729245 0
M  V30 5504 C 535.579 -0.116681 3.00474 0
M  V30 5505 C 537.127 -0.187103 3.1244 0
M  V30 5506 C 537.602 -0.035783 4.57986 0
M  V30 5507 N 539.093 -0.0917676 4.63109 0
M  V30 5508 C 539.828 0.00107251 5.734 0
M  V30 5509 N 539.324 0.146773 6.92645 0
M  V30 5510 N 541.117 -0.0551577 5.62073 0
M  V30 5511 H 533.268 0.983055 1.88281 0
M  V30 5512 H 535.531 0.382386 0.867459 0
M  V30 5513 H 535.237 0.85712 3.41096 0
M  V30 5514 H 535.111 -0.873929 3.66936 0
M  V30 5515 H 537.498 -1.15138 2.71712 0
M  V30 5516 H 537.579 0.601052 2.48638 0
M  V30 5517 H 537.223 0.925212 4.99402 0
M  V30 5518 H 537.153 -0.843196 5.19806 0
M  V30 5519 H 539.644 -0.203261 3.77353 0
M  V30 5520 H 539.957 0.210076 7.72514 0
M  V30 5521 H 538.302 0.181979 6.94762 0
M  V30 5522 H 541.493 -0.167605 4.678 0
M  V30 5523 H 541.666 0.020652 6.47997 0
M  V30 5524 N 535.072 -1.5615 -0.213296 0
M  V30 5525 C 536.32 -1.79191 -0.934612 0
M  V30 5526 C 536.641 -0.630112 -1.84539 0
M  V30 5527 O 535.911 0.35257 -1.92701 0
M  V30 5528 H 534.491 -0.660937 -0.348097 0
M  V30 5529 H 537.153 -1.93618 -0.22317 0
M  V30 5530 H 536.249 -2.71656 -1.53654 0
M  V30 5531 N 536.55 0.480323 -1.50102 0
M  V30 5532 C 537.796 1.23208 -1.61837 0
M  V30 5533 C 538.151 1.89878 -0.310509 0
M  V30 5534 O 537.444 1.7871 0.690897 0
M  V30 5535 C 537.638 2.30708 -2.72963 0
M  V30 5536 C 537.467 1.74583 -4.14428 0
M  V30 5537 C 536.237 1.54964 -4.80951 0
M  V30 5538 C 538.435 1.24597 -4.98979 0
M  V30 5539 N 536.417 0.939855 -6.06663 0
M  V30 5540 C 537.788 0.758834 -6.15339 0
M  V30 5541 C 539.843 1.13365 -4.84822 0
M  V30 5542 C 538.546 0.17046 -7.19098 0
M  V30 5543 C 540.572 0.559221 -5.8875 0
M  V30 5544 C 539.934 0.082415 -7.04352 0
M  V30 5545 H 536.033 0.440065 -0.646426 0
M  V30 5546 H 538.617 0.535632 -1.87187 0
M  V30 5547 H 536.788 2.9779 -2.4935 0
M  V30 5548 H 538.52 2.97738 -2.74106 0
M  V30 5549 H 535.275 1.79926 -4.38091 0
M  V30 5550 H 535.699 0.653641 -6.73837 0
M  V30 5551 H 540.341 1.48823 -3.95742 0
M  V30 5552 H 538.059 -0.196347 -8.07861 0
M  V30 5553 H 541.645 0.474804 -5.79859 0
M  V30 5554 H 540.525 -0.355119 -7.83396 0
M  V30 5555 N 538.028 1.39524 0.732853 0
M  V30 5556 C 539.444 1.21176 1.03868 0
M  V30 5557 C 539.644 0.0748448 2.01361 0
M  V30 5558 O 538.7 -0.57281 2.45917 0
M  V30 5559 C 540.013 2.54667 1.59892 0
M  V30 5560 C 541.561 2.6153 1.71962 0
M  V30 5561 C 542.036 3.95248 2.31394 0
M  V30 5562 N 543.527 3.96899 2.38801 0
M  V30 5563 C 544.262 4.97138 2.85729 0
M  V30 5564 N 543.758 6.07775 3.32537 0
M  V30 5565 N 545.551 4.84516 2.84957 0
M  V30 5566 H 537.702 2.12225 0.086304 0
M  V30 5567 H 539.965 0.942614 0.100907 0
M  V30 5568 H 539.671 3.38423 0.95721 0
M  V30 5569 H 539.545 2.74538 2.58668 0
M  V30 5570 H 541.932 1.78156 2.35254 0
M  V30 5571 H 542.013 2.45507 0.718327 0
M  V30 5572 H 541.657 4.79054 1.68729 0
M  V30 5573 H 541.587 4.08593 3.32204 0
M  V30 5574 H 544.078 3.16998 2.05719 0
M  V30 5575 H 544.391 6.8017 3.66862 0
M  V30 5576 H 542.736 6.11366 3.30541 0
M  V30 5577 H 545.927 3.97185 2.47713 0
M  V30 5578 H 546.1 5.62783 3.21215 0
M  V30 5579 N 539.506 -0.963266 1.24736 0
M  V30 5580 C 540.736 -1.73913 1.11524 0
M  V30 5581 C 541.144 -1.86218 -0.334612 0
M  V30 5582 O 540.487 -1.3531 -1.24245 0
M  V30 5583 C 540.549 -3.17501 1.68622 0
M  V30 5584 C 540.213 -3.28655 3.17546 0
M  V30 5585 C 541.21 -3.13637 4.14642 0
M  V30 5586 C 538.895 -3.52753 3.5759 0
M  V30 5587 C 540.889 -3.2255 5.49764 0
M  V30 5588 C 538.576 -3.61303 4.92852 0
M  V30 5589 C 539.574 -3.46214 5.88748 0
M  V30 5590 O 539.262 -3.5443 7.2155 0
M  V30 5591 H 538.994 -0.552057 0.390139 0
M  V30 5592 H 541.548 -1.2177 1.65412 0
M  V30 5593 H 539.778 -3.70969 1.09172 0
M  V30 5594 H 541.467 -3.76914 1.50635 0
M  V30 5595 H 542.233 -2.94899 3.85045 0
M  V30 5596 H 538.112 -3.63561 2.83451 0
M  V30 5597 H 541.656 -3.1069 6.24594 0
M  V30 5598 H 537.553 -3.79556 5.22118 0
M  V30 5599 H 538.321 -3.71116 7.29531 0
M  V30 5600 N 540.985 -1.06182 -1.16461 0
M  V30 5601 C 541.895 -0.682671 -2.24448 0
M  V30 5602 C 542.911 0.30078 -1.71381 0
M  V30 5603 O 544.087 0.150376 -2.00838 0
M  V30 5604 C 541.152 -0.0737202 -3.46622 0
M  V30 5605 C 540.213 -1.10889 -4.14731 0
M  V30 5606 C 539.446 -0.528908 -5.31073 0
M  V30 5607 O 539.669 0.65868 -5.66584 0
M  V30 5608 O 538.603 -1.26805 -5.88391 0
M  V30 5609 H 542.429 -1.58291 -2.59187 0
M  V30 5610 H 540.014 -0.834013 -1.23954 0
M  V30 5611 H 541.896 0.264192 -4.20571 0
M  V30 5612 H 540.571 0.800015 -3.13658 0
M  V30 5613 H 539.478 -1.49896 -3.42756 0
M  V30 5614 H 540.811 -1.95412 -4.51747 0
M  V30 5615 N 542.463 1.3308 -0.844243 0
M  V30 5616 C 543.711 1.97215 -0.441676 0
M  V30 5617 C 544.032 1.67185 1.0037 0
M  V30 5618 O 543.302 0.973588 1.69994 0
M  V30 5619 H 541.882 0.72959 -0.160335 0
M  V30 5620 H 544.544 1.62348 -1.07838 0
M  V30 5621 H 543.64 3.06698 -0.57815 0
M  V30 5622 N 543.941 0.601185 1.45683 0
M  V30 5623 C 544.873 -0.159446 2.28645 0
M  V30 5624 C 545.886 -0.837882 1.39583 0
M  V30 5625 O 547.075 -0.704344 1.64016 0
M  V30 5626 C 544.175 -1.24641 3.15147 0
M  V30 5627 C 543.348 -0.656334 4.32448 0
M  V30 5628 C 542.407 -1.63337 5.00208 0
M  V30 5629 O 541.433 -1.16217 5.57209 0
M  V30 5630 N 542.635 -2.96773 4.98905 0
M  V30 5631 H 545.4 0.5524 2.94565 0
M  V30 5632 H 542.961 0.440223 1.558 0
M  V30 5633 H 544.953 -1.8997 3.57342 0
M  V30 5634 H 543.523 -1.86087 2.51178 0
M  V30 5635 H 542.743 0.174879 3.93812 0
M  V30 5636 H 544.031 -0.242211 5.08223 0
M  V30 5637 H 543.429 -3.37662 4.53873 0
M  V30 5638 H 541.986 -3.57541 5.44984 0
M  V30 5639 N 545.419 -1.53889 0.339982 0
M  V30 5640 C 546.666 -2.00855 -0.257621 0
M  V30 5641 C 546.994 -1.22788 -1.50842 0
M  V30 5642 O 546.249 -0.302567 -1.93347 0
M  V30 5643 C 546.548 -3.51968 -0.620735 0
M  V30 5644 C 546.214 -4.47741 0.532771 0
M  V30 5645 C 544.876 -4.73645 0.849339 0
M  V30 5646 C 547.228 -5.04551 1.3068 0
M  V30 5647 C 544.556 -5.53614 1.94237 0
M  V30 5648 C 546.908 -5.85713 2.39005 0
M  V30 5649 C 545.572 -6.09912 2.71225 0
M  V30 5650 H 544.842 -0.734979 -0.0942703 0
M  V30 5651 H 547.489 -1.85714 0.467159 0
M  V30 5652 H 545.794 -3.64921 -1.42618 0
M  V30 5653 H 547.491 -3.85762 -1.09495 0
M  V30 5654 H 544.081 -4.27711 0.275973 0
M  V30 5655 H 548.265 -4.84507 1.07549 0
M  V30 5656 H 543.521 -5.7059 2.19628 0
M  V30 5657 H 547.695 -6.28748 2.99415 0
M  V30 5658 H 545.322 -6.71665 3.56047 0
M  V30 5659 N 546.897 -0.0685191 -1.57451 0
M  V30 5660 C 548.143 0.596247 -1.94465 0
M  V30 5661 C 548.498 1.67417 -0.948117 0
M  V30 5662 O 547.791 1.91576 0.0301056 0
M  V30 5663 C 547.985 1.22051 -3.35914 0
M  V30 5664 C 547.814 0.204586 -4.49234 0
M  V30 5665 C 546.584 -0.20959 -5.04865 0
M  V30 5666 C 548.782 -0.556872 -5.11276 0
M  V30 5667 N 546.764 -1.21656 -6.01725 0
M  V30 5668 C 548.135 -1.41642 -6.03604 0
M  V30 5669 C 550.19 -0.613297 -4.94108 0
M  V30 5670 C 548.893 -2.32737 -6.80607 0
M  V30 5671 C 550.919 -1.51174 -5.71752 0
M  V30 5672 C 550.281 -2.35898 -6.63726 0
M  V30 5673 H 546.38 0.189307 -0.75874 0
M  V30 5674 H 548.964 -0.144899 -1.9416 0
M  V30 5675 H 547.135 1.9316 -3.36963 0
M  V30 5676 H 548.867 1.84548 -3.60172 0
M  V30 5677 H 545.622 0.172871 -4.73284 0
M  V30 5678 H 546.046 -1.71746 -6.54853 0
M  V30 5679 H 550.688 0.0275228 -4.22791 0
M  V30 5680 H 548.406 -2.97856 -7.51204 0
M  V30 5681 H 551.992 -1.5602 -5.6049 0
M  V30 5682 H 550.872 -3.04291 -7.22756 0
M  V30 5683 N 548.375 1.56261 0.205012 0
M  V30 5684 C 549.338 1.92908 1.23771 0
M  V30 5685 C 550.338 0.809208 1.38955 0
M  V30 5686 O 551.528 1.07676 1.36936 0
M  V30 5687 C 548.66 2.19442 2.60879 0
M  V30 5688 H 549.853 2.85287 0.924728 0
M  V30 5689 H 547.406 1.49798 0.446125 0
M  V30 5690 H 548.141 1.29668 2.97248 0
M  V30 5691 H 547.926 3.0104 2.51232 0
M  V30 5692 H 549.416 2.48833 3.35368 0
M  V30 5693 N 549.853 -0.472356 1.50355 0
M  V30 5694 C 551.099 -1.22634 1.6152 0
M  V30 5695 C 551.432 -1.91645 0.313995 0
M  V30 5696 O 550.707 -1.82059 -0.684446 0
M  V30 5697 C 550.99 -2.27099 2.7946 0
M  V30 5698 C 550.843 -1.62402 4.19459 0
M  V30 5699 C 552.162 -3.28421 2.92964 0
M  V30 5700 H 549.281 -0.444494 0.587873 0
M  V30 5701 H 551.923 -0.520321 1.82737 0
M  V30 5702 H 550.073 -2.87314 2.61501 0
M  V30 5703 H 551.745 -1.05793 4.49005 0
M  V30 5704 H 549.988 -0.927184 4.23776 0
M  V30 5705 H 550.659 -2.38309 4.97909 0
M  V30 5706 H 553.135 -2.78227 3.09401 0
M  V30 5707 H 552.011 -3.98845 3.77113 0
M  V30 5708 H 552.272 -3.92467 2.03525 0
M  V30 5709 N 551.331 -1.39911 -0.725443 0
M  V30 5710 C 552.278 -1.39393 -1.83952 0
M  V30 5711 C 553.248 -0.252249 -1.64173 0
M  V30 5712 O 554.433 -0.44882 -1.85446 0
M  V30 5713 C 551.573 -1.25262 -3.21564 0
M  V30 5714 C 550.686 -2.49054 -3.52982 0
M  V30 5715 C 549.821 -2.27439 -4.80047 0
M  V30 5716 C 548.86 -3.46857 -5.04338 0
M  V30 5717 N 547.997 -3.24499 -6.22611 0
M  V30 5718 H 552.837 -2.34622 -1.83729 0
M  V30 5719 H 550.374 -1.16537 -0.897636 0
M  V30 5720 H 552.332 -1.15077 -4.01015 0
M  V30 5721 H 550.962 -0.33657 -3.21041 0
M  V30 5722 H 550.014 -2.69805 -2.6816 0
M  V30 5723 H 551.326 -3.37973 -3.66846 0
M  V30 5724 H 550.48 -2.14551 -5.67497 0
M  V30 5725 H 549.219 -1.35929 -4.68374 0
M  V30 5726 H 548.224 -3.60232 -4.15346 0
M  V30 5727 H 549.449 -4.3928 -5.17889 0
M  V30 5728 H 547.395 -2.35663 -6.12208 0
M  V30 5729 H 547.312 -4.06978 -6.37106 0
M  V30 5730 H 548.58 -3.15325 -7.12875 0
M  V30 5731 N 552.809 0.956637 -1.25245 0
M  V30 5732 C 554.057 1.69764 -1.09657 0
M  V30 5733 C 554.378 1.91583 0.363464 0
M  V30 5734 O 553.648 1.50149 1.25825 0
M  V30 5735 H 552.228 0.629097 -0.402798 0
M  V30 5736 H 554.89 1.15026 -1.57337 0
M  V30 5737 H 553.986 2.67769 -1.60331 0
M  V30 5738 N 554.287 1.06798 1.15896 0
M  V30 5739 C 555.197 0.694564 2.24083 0
M  V30 5740 C 556.213 -0.291687 1.71538 0
M  V30 5741 O 557.389 -0.139723 2.00915 0
M  V30 5742 C 554.454 0.0921014 3.46578 0
M  V30 5743 C 553.515 1.13087 4.14137 0
M  V30 5744 C 552.748 0.557064 5.30785 0
M  V30 5745 O 552.971 -0.628623 5.66925 0
M  V30 5746 O 551.905 1.29924 5.8771 0
M  V30 5747 H 555.731 1.59663 2.58344 0
M  V30 5748 H 553.316 0.840575 1.2351 0
M  V30 5749 H 555.198 -0.241884 4.20705 0
M  V30 5750 H 553.873 -0.78337 3.14078 0
M  V30 5751 H 552.78 1.51712 3.41957 0
M  V30 5752 H 554.113 1.97805 4.50704 0
M  V30 5753 N 555.766 -1.3263 0.851289 0
M  V30 5754 C 556.676 -2.32722 0.296268 0
M  V30 5755 C 557.692 -1.63901 -0.584162 0
M  V30 5756 O 558.868 -1.95465 -0.485334 0
M  V30 5757 C 555.933 -3.42942 -0.509103 0
M  V30 5758 C 554.994 -4.2746 0.397069 0
M  V30 5759 C 554.227 -5.32416 -0.36996 0
M  V30 5760 O 554.45 -5.47491 -1.6003 0
M  V30 5761 O 553.384 -6.01327 0.262493 0
M  V30 5762 H 557.21 -2.82078 1.12543 0
M  V30 5763 H 554.795 -1.36194 0.614135 0
M  V30 5764 H 556.677 -4.1017 -0.96634 0
M  V30 5765 H 555.352 -2.95781 -1.31512 0
M  V30 5766 H 554.259 -3.63053 0.902411 0
M  V30 5767 H 555.592 -4.78136 1.16818 0
M  V30 5768 N 557.244 -0.608902 -1.45362 0
M  V30 5769 C 558.194 0.130616 -2.27626 0
M  V30 5770 C 559.178 0.837323 -1.37396 0
M  V30 5771 O 560.37 0.727096 -1.61376 0
M  V30 5772 C 557.499 1.12646 -3.24293 0
M  V30 5773 C 556.585 0.42052 -4.2201 0
M  V30 5774 N 556.976 -0.538569 -5.02925 0
M  V30 5775 C 555.274 0.667901 -4.40971 0
M  V30 5776 C 555.975 -0.953625 -5.7383 0
M  V30 5777 N 554.951 -0.297097 -5.42788 0
M  V30 5778 H 558.753 -0.605996 -2.87585 0
M  V30 5779 H 556.267 -0.432672 -1.5653 0
M  V30 5780 H 558.264 1.67066 -3.81961 0
M  V30 5781 H 556.924 1.86361 -2.65894 0
M  V30 5782 H 557.935 -0.915375 -5.09746 0
M  V30 5783 H 554.612 1.38963 -3.93695 0
M  V30 5784 H 556.002 -1.74473 -6.48852 0
M  V30 5785 N 558.722 1.53707 -0.348139 0
M  V30 5786 C 559.632 2.28881 0.514857 0
M  V30 5787 C 560.648 1.34168 1.10793 0
M  V30 5788 O 561.824 1.6721 1.12262 0
M  V30 5789 C 558.889 3.05042 1.64774 0
M  V30 5790 C 557.95 4.15389 1.08398 0
M  V30 5791 C 557.183 4.87909 2.16287 0
M  V30 5792 O 557.406 4.60137 3.3709 0
M  V30 5793 O 556.34 5.74254 1.80323 0
M  V30 5794 H 560.166 3.03547 -0.0963699 0
M  V30 5795 H 557.751 1.48972 -0.113043 0
M  V30 5796 H 559.633 3.52656 2.30677 0
M  V30 5797 H 558.308 2.33228 2.24469 0
M  V30 5798 H 557.215 3.72068 0.389341 0
M  V30 5799 H 558.548 4.89318 0.531829 0
M  V30 5800 N 560.2 0.0768682 1.57412 0
M  V30 5801 C 561.616 -0.279772 1.57129 0
M  V30 5802 C 561.816 -1.69688 1.08666 0
M  V30 5803 O 560.872 -2.40953 0.754843 0
M  V30 5804 C 562.185 -0.0848055 3.0058 0
M  V30 5805 C 563.733 -0.153954 3.12621 0
M  V30 5806 C 564.208 0.0127946 4.57998 0
M  V30 5807 N 565.699 -0.0426435 4.6318 0
M  V30 5808 C 566.434 0.0618892 5.73367 0
M  V30 5809 N 565.93 0.220229 6.9245 0
M  V30 5810 N 567.723 0.00446072 5.621 0
M  V30 5811 H 559.874 1.00297 1.87228 0
M  V30 5812 H 562.137 0.391565 0.863354 0
M  V30 5813 H 561.843 0.89325 3.40168 0
M  V30 5814 H 561.717 -0.834961 3.67843 0
M  V30 5815 H 564.104 -1.1225 2.72917 0
M  V30 5816 H 564.185 0.627389 2.47987 0
M  V30 5817 H 563.829 0.978128 4.98392 0
M  V30 5818 H 563.759 -0.788016 5.20671 0
M  V30 5819 H 566.25 -0.163226 3.77547 0
M  V30 5820 H 566.563 0.291999 7.72248 0
M  V30 5821 H 564.908 0.255658 6.9453 0
M  V30 5822 H 568.099 -0.117979 4.67951 0
M  V30 5823 H 568.272 0.0893796 6.47938 0
M  V30 5824 N 561.678 -1.56367 -0.196722 0
M  V30 5825 C 562.926 -1.80172 -0.915554 0
M  V30 5826 C 563.247 -0.649649 -1.8386 0
M  V30 5827 O 562.517 0.332111 -1.93064 0
M  V30 5828 H 561.097 -0.664592 -0.341067 0
M  V30 5829 H 563.759 -1.93844 -0.202622 0
M  V30 5830 H 562.855 -2.7327 -1.50764 0
M  V30 5831 N 563.156 0.464375 -1.50603 0
M  V30 5832 C 564.106 1.55929 -1.66343 0
M  V30 5833 C 565.09 1.52338 -0.517887 0
M  V30 5834 O 566.282 1.59248 -0.772601 0
M  V30 5835 C 563.411 2.94327 -1.7671 0
M  V30 5836 C 562.497 3.02777 -2.96962 0
M  V30 5837 N 562.888 2.81026 -4.20545 0
M  V30 5838 C 561.186 3.33919 -2.95659 0
M  V30 5839 C 561.887 2.94618 -5.01573 0
M  V30 5840 N 560.863 3.25112 -4.35664 0
M  V30 5841 H 564.665 1.37822 -2.59581 0
M  V30 5842 H 562.179 0.671227 -1.47879 0
M  V30 5843 H 564.176 3.73063 -1.86091 0
M  V30 5844 H 562.836 3.13476 -0.846353 0
M  V30 5845 H 563.847 2.56477 -4.49933 0
M  V30 5846 H 560.524 3.59013 -2.13111 0
M  V30 5847 H 561.914 2.81984 -6.09865 0
M  V30 5848 N 564.634 1.40294 0.718013 0
M  V30 5849 C 566.045 1.34289 1.29705 0
M  V30 5850 C 566.396 0.0152228 1.96194 0
M  V30 5851 O 565.521 -0.88682 1.97394 0
M  V30 5852 C 566.116 2.43219 2.3586 0
M  V30 5853 C 564.675 2.40682 2.89394 0
M  V30 5854 C 563.822 2.24223 1.63154 0
M  V30 5855 H 566.773 1.50135 0.514312 0
M  V30 5856 H 566.794 2.10986 3.16647 0
M  V30 5857 H 566.306 3.39836 1.87439 0
M  V30 5858 H 564.407 1.47756 3.42051 0
M  V30 5859 H 564.52 3.36177 3.41353 0
M  V30 5860 H 562.884 1.71696 1.88129 0
M  V30 5861 H 563.667 3.22834 1.16761 0
M  V30 5862 N 566.112 -0.949982 1.2575 0
M  V30 5863 C 567.337 -1.73503 1.13628 0
M  V30 5864 C 567.762 -1.85601 -0.30559 0
M  V30 5865 O 567.12 -1.33984 -1.22139 0
M  V30 5866 C 567.168 -3.1243 1.80055 0
M  V30 5867 O 566.272 -3.97916 1.08336 0
M  V30 5868 H 565.613 -0.532665 0.396439 0
M  V30 5869 H 568.143 -1.19043 1.66403 0
M  V30 5870 H 568.153 -3.62866 1.86527 0
M  V30 5871 H 566.828 -3.02941 2.84956 0
M  V30 5872 H 565.405 -3.56375 1.09777 0
M  V30 5873 N 567.59 -1.07411 -1.15328 0
M  V30 5874 C 568.867 -0.710732 -1.82231 0
M  V30 5875 C 569.247 0.806732 -1.95077 0
M  V30 5876 O 568.595 1.72139 -1.50268 0
M  V30 5877 C 568.805 -1.42586 -3.18544 0
M  V30 5878 C 570.153 -1.57836 -3.94174 0
M  V30 5879 O 571.177 -1.38669 -3.281 0
M  V30 5880 O 570.036 -1.8938 -5.12638 0
M  V30 5881 H 567.13 -0.25297 -0.78736 0
M  V30 5882 H 569.676 -1.17508 -1.22434 0
M  V30 5883 H 568.448 -2.46008 -3.04296 0
M  V30 5884 H 568.071 -0.952332 -3.86026 0
M  V30 5885 N 569.068 1.32177 -0.85831 0
M  V30 5886 C 570.031 2.27086 -0.310588 0
M  V30 5887 C 571.031 1.51751 0.531806 0
M  V30 5888 O 572.221 1.70794 0.34279 0
M  V30 5889 C 569.353 3.36266 0.560179 0
M  V30 5890 H 570.546 2.77045 -1.1483 0
M  V30 5891 H 568.099 1.42911 -0.632942 0
M  V30 5892 H 568.834 2.9158 1.41956 0
M  V30 5893 H 568.619 3.92077 -0.0428473 0
M  V30 5894 H 570.109 4.06974 0.936056 0
M  V30 5895 N 570.547 0.616602 1.45037 0
M  V30 5896 C 571.477 -0.0840787 2.33349 0
M  V30 5897 C 572.458 -0.849641 1.4736 0
M  V30 5898 O 573.643 -0.818407 1.76113 0
M  V30 5899 C 570.773 -1.07604 3.3021 0
M  V30 5900 C 569.727 -0.423096 4.25904 0
M  V30 5901 C 569.053 -1.52394 5.12523 0
M  V30 5902 C 570.353 0.661457 5.18095 0
M  V30 5903 H 572.047 0.653333 2.92185 0
M  V30 5904 H 569.593 0.315634 1.40498 0
M  V30 5905 H 571.546 -1.57485 3.90866 0
M  V30 5906 H 570.27 -1.84416 2.69552 0
M  V30 5907 H 568.929 0.05493 3.66559 0
M  V30 5908 H 568.577 -2.28257 4.48227 0
M  V30 5909 H 568.277 -1.09251 5.77354 0
M  V30 5910 H 569.801 -2.02485 5.76049 0
M  V30 5911 H 571.215 0.246353 5.7277 0
M  V30 5912 H 569.612 1.01517 5.91451 0
M  V30 5913 H 570.682 1.53446 4.59981 0
M  V30 5914 N 572.025 -1.5352 0.356285 0
M  V30 5915 C 572.935 -2.29151 -0.502712 0
M  V30 5916 C 573.951 -1.34753 -1.1008 0
M  V30 5917 O 575.127 -1.67803 -1.11374 0
M  V30 5918 C 572.192 -3.05911 -1.63154 0
M  V30 5919 C 571.253 -4.15958 -1.06194 0
M  V30 5920 C 570.486 -4.8905 -2.13696 0
M  V30 5921 O 570.709 -4.61919 -3.34645 0
M  V30 5922 O 569.643 -5.75202 -1.77275 0
M  V30 5923 H 573.469 -3.03492 0.112466 0
M  V30 5924 H 571.054 -1.4891 0.120942 0
M  V30 5925 H 572.936 -3.53874 -2.28804 0
M  V30 5926 H 571.611 -2.34415 -2.23229 0
M  V30 5927 H 570.518 -3.7227 -0.369603 0
M  V30 5928 H 571.851 -4.89593 -0.505872 0
M  V30 5929 N 573.503 -0.0852151 -1.57369 0
M  V30 5930 C 574.466 0.8627 -2.12344 0
M  V30 5931 C 575.466 1.21746 -1.05046 0
M  V30 5932 O 576.656 1.14852 -1.30976 0
M  V30 5933 C 573.788 2.1618 -2.63589 0
M  V30 5934 H 574.981 0.385511 -2.97412 0
M  V30 5935 H 572.534 0.163663 -1.55441 0
M  V30 5936 H 573.269 2.68406 -1.82013 0
M  V30 5937 H 573.054 1.91723 -3.4203 0
M  V30 5938 H 574.544 2.84011 -3.06149 0
M  V30 5939 N 574.981 1.5647 0.188427 0
M  V30 5940 C 576.392 1.70864 0.752494 0
M  V30 5941 C 576.743 0.692905 1.83557 0
M  V30 5942 O 575.868 -0.149307 2.15884 0
M  V30 5943 C 576.463 3.09789 1.37173 0
M  V30 5944 C 575.022 3.25925 1.88281 0
M  V30 5945 C 574.169 2.66817 0.755259 0
M  V30 5946 H 577.12 1.58657 -0.0367408 0
M  V30 5947 H 577.141 3.07489 2.24122 0
M  V30 5948 H 576.653 3.83693 0.583219 0
M  V30 5949 H 574.754 2.56948 2.6983 0
M  V30 5950 H 574.867 4.33498 2.04001 0
M  V30 5951 H 573.231 2.2617 1.17128 0
M  V30 5952 H 574.014 3.43294 -0.0211237 0
M  V30 5953 N 576.459 -0.456382 1.50847 0
M  V30 5954 C 577.407 -1.57318 1.71329 0
M  V30 5955 C 578.401 -1.59187 0.579287 0
M  V30 5956 O 579.607 -1.6316 0.76018 0
M  V30 5957 H 575.982 -0.5223 0.541024 0
M  V30 5958 H 577.953 -1.3721 2.64983 0
M  V30 5959 C 576.702 -2.95142 1.83811 0
M  V30 5960 H 576.025 -2.94428 2.70467 0
M  V30 5961 H 577.465 -3.72702 2.02161 0
M  V30 5962 C 575.924 -3.31636 0.593224 0
M  V30 5963 O 576.454 -4.00852 -0.260898 0
M  V30 5964 N 574.66 -2.87205 0.442902 0
M  V30 5965 H 574.207 -2.31051 1.13901 0
M  V30 5966 H 574.165 -3.11986 -0.38884 0
M  V30 5967 N 577.937 -1.40673 -0.710563 0
M  V30 5968 C 579.184 -1.39222 -1.47049 0
M  V30 5969 C 579.512 0.0037691 -1.945 0
M  V30 5970 O 578.767 0.989224 -1.68857 0
M  V30 5971 C 579.066 -2.33253 -2.70791 0
M  V30 5972 C 578.732 -3.80406 -2.42079 0
M  V30 5973 C 577.394 -4.20496 -2.33959 0
M  V30 5974 C 579.746 -4.73375 -2.18094 0
M  V30 5975 C 577.074 -5.51584 -1.99929 0
M  V30 5976 C 579.426 -6.04768 -1.85576 0
M  V30 5977 C 578.09 -6.43895 -1.75941 0
M  V30 5978 H 577.36 -0.509449 -0.538092 0
M  V30 5979 H 580.007 -1.73363 -0.81348 0
M  V30 5980 H 578.312 -1.92314 -3.41354 0
M  V30 5981 H 580.009 -2.29412 -3.28894 0
M  V30 5982 H 576.599 -3.48645 -2.49288 0
M  V30 5983 H 580.783 -4.43217 -2.23321 0
M  V30 5984 H 576.039 -5.80797 -1.91011 0
M  V30 5985 H 580.213 -6.76318 -1.66033 0
M  V30 5986 H 577.84 -7.45387 -1.4934 0
M  V30 5987 N 579.415 0.9433 -1.26252 0
M  V30 5988 C 580.661 1.69175 -1.11837 0
M  V30 5989 C 580.994 1.91238 0.337891 0
M  V30 5990 O 580.269 1.49152 1.24836 0
M  V30 5991 C 580.552 3.06783 -1.88563 0
M  V30 5992 C 580.405 2.9206 -3.42083 0
M  V30 5993 C 581.724 4.06865 -1.67776 0
M  V30 5994 H 578.843 0.61399 -0.407658 0
M  V30 5995 H 581.485 1.09572 -1.55222 0
M  V30 5996 H 579.635 3.57663 -1.51689 0
M  V30 5997 H 581.307 2.48419 -3.88698 0
M  V30 5998 H 579.55 2.27731 -3.69217 0
M  V30 5999 H 580.221 3.89651 -3.90994 0
M  V30 6000 H 582.697 3.64939 -1.99897 0
M  V30 6001 H 581.573 5.01168 -2.23879 0
M  V30 6002 H 581.834 4.37705 -0.621816 0
M  V30 6003 N 580.893 1.08022 1.14757 0
M  V30 6004 C 582.123 0.827646 1.89298 0
M  V30 6005 C 582.531 -0.623506 1.78631 0
M  V30 6006 O 581.874 -1.43991 1.14071 0
M  V30 6007 C 581.936 1.16553 3.40082 0
M  V30 6008 C 581.6 2.61866 3.74533 0
M  V30 6009 C 582.597 3.60116 3.74984 0
M  V30 6010 C 580.282 2.97619 4.04633 0
M  V30 6011 C 582.276 4.92151 4.05051 0
M  V30 6012 C 579.963 4.2985 4.34364 0
M  V30 6013 C 580.961 5.26926 4.34555 0
M  V30 6014 O 580.649 6.5678 4.63568 0
M  V30 6015 H 580.381 0.298396 0.606577 0
M  V30 6016 H 582.935 1.44187 1.46285 0
M  V30 6017 H 581.165 0.494296 3.83528 0
M  V30 6018 H 582.854 0.894407 3.95923 0
M  V30 6019 H 583.62 3.33837 3.51821 0
M  V30 6020 H 579.499 2.22702 4.03639 0
M  V30 6021 H 583.043 5.67915 4.05115 0
M  V30 6022 H 578.94 4.55879 4.56995 0
M  V30 6023 H 579.708 6.62035 4.81303 0
M  V30 6024 N 582.371 -1.3172 0.865308 0
M  V30 6025 C 583.611 -1.98675 0.480365 0
M  V30 6026 C 583.975 -1.66929 -0.948621 0
M  V30 6027 O 585.176 -2.27059 -1.43867 0
M  V30 6028 C 583.447 -3.49972 0.724858 0
M  V30 6029 S 585.006 -4.36598 0.439078 0
M  V30 6030 H 581.824 -0.687967 0.179506 0
M  V30 6031 H 584.426 -1.60215 1.12033 0
M  V30 6032 H 583.13 -3.70567 1.76375 0
M  V30 6033 H 582.661 -3.93335 0.0717173 0
M  V30 6034 H 584.676 -4.90792 -0.730564 0
M  V30 6035 N 583.85 -0.624285 -1.44708 0
M  V30 6036 C 585.099 -0.123539 -2.01321 0
M  V30 6037 C 585.412 1.25966 -1.49639 0
M  V30 6038 O 586.618 1.85405 -1.98336 0
M  V30 6039 C 585.074 -0.170124 -3.59498 0
M  V30 6040 C 584.682 -1.55421 -4.20176 0
M  V30 6041 C 586.426 0.274513 -4.23611 0
M  V30 6042 C 584.332 -1.55628 -5.70556 0
M  V30 6043 H 583.263 -0.0424183 -0.752806 0
M  V30 6044 H 585.913 -0.782076 -1.65999 0
M  V30 6045 H 584.296 0.555385 -3.92086 0
M  V30 6046 H 585.47 -2.30276 -3.99136 0
M  V30 6047 H 583.784 -1.94235 -3.68323 0
M  V30 6048 H 586.382 0.292402 -5.339 0
M  V30 6049 H 586.725 1.3005 -3.95465 0
M  V30 6050 H 587.258 -0.398275 -3.95801 0
M  V30 6051 H 583.997 -2.56041 -6.03426 0
M  V30 6052 H 583.517 -0.850563 -5.93739 0
M  V30 6053 H 585.196 -1.28721 -6.34066 0
M  V30 6054 N 585.328 1.53329 -0.364422 0
M  V30 6055 C 586.26 2.23286 0.517293 0
M  V30 6056 C 587.273 1.24657 1.04711 0
M  V30 6057 O 588.462 1.50887 0.95369 0
M  V30 6058 C 585.562 2.91604 1.72685 0
M  V30 6059 C 584.735 4.1673 1.32873 0
M  V30 6060 C 583.794 4.68269 2.40022 0
M  V30 6061 O 582.82 5.31976 2.02461 0
M  V30 6062 N 584.022 4.45983 3.7159 0
M  V30 6063 H 586.787 2.99588 -0.0819391 0
M  V30 6064 H 584.348 1.60787 -0.189544 0
M  V30 6065 H 586.34 3.22992 2.4384 0
M  V30 6066 H 584.91 2.18763 2.23297 0
M  V30 6067 H 584.13 3.91657 0.447069 0
M  V30 6068 H 585.418 4.98078 1.03902 0
M  V30 6069 H 584.816 3.95077 4.04883 0
M  V30 6070 H 583.373 4.81924 4.38854 0
M  V30 6071 N 586.806 0.0935595 1.57322 0
M  V30 6072 C 587.754 -0.883457 2.15169 0
M  V30 6073 C 588.748 -1.29324 1.09415 0
M  V30 6074 O 589.954 -1.26795 1.27762 0
M  V30 6075 H 586.329 -0.302923 0.688289 0
M  V30 6076 H 588.3 -0.370845 2.96087 0
M  V30 6077 C 587.049 -2.13345 2.74552 0
M  V30 6078 H 586.372 -1.82702 3.55612 0
M  V30 6079 H 587.812 -2.7977 3.18598 0
M  V30 6080 C 586.271 -2.90646 1.70371 0
M  V30 6081 O 586.801 -3.85133 1.14173 0
M  V30 6082 N 585.007 -2.54157 1.40899 0
M  V30 6083 H 584.554 -1.77391 1.86789 0
M  V30 6084 H 584.512 -3.06178 0.714301 0
M  V30 6085 N 588.284 -1.56567 -0.180126 0
M  V30 6086 C 589.234 -1.92132 -1.22756 0
M  V30 6087 C 590.218 -0.788639 -1.40247 0
M  V30 6088 O 591.41 -1.05171 -1.42366 0
M  V30 6089 C 588.539 -2.27719 -2.56902 0
M  V30 6090 C 587.625 -3.47481 -2.43142 0
M  V30 6091 N 588.016 -4.64973 -1.99082 0
M  V30 6092 C 586.314 -3.51914 -2.73994 0
M  V30 6093 C 587.015 -5.47119 -1.97574 0
M  V30 6094 N 585.991 -4.87925 -2.39645 0
M  V30 6095 H 589.793 -2.80464 -0.878478 0
M  V30 6096 H 587.307 -1.57686 -0.388463 0
M  V30 6097 H 589.304 -2.51389 -3.32579 0
M  V30 6098 H 587.964 -1.40722 -2.92621 0
M  V30 6099 H 588.975 -4.89358 -1.69557 0
M  V30 6100 H 585.652 -2.75372 -3.13809 0
M  V30 6101 H 587.042 -6.51254 -1.65282 0
M  V30 6102 N 589.762 0.448376 -1.51087 0
M  V30 6103 C 591.039 1.20926 -1.53741 0
M  V30 6104 C 591.419 2.09025 -0.295222 0
M  V30 6105 O 590.767 2.16851 0.720283 0
M  V30 6106 C 590.977 2.02067 -2.84552 0
M  V30 6107 C 592.325 2.59486 -3.36084 0
M  V30 6108 O 593.349 2.12289 -2.86028 0
M  V30 6109 O 592.208 3.45539 -4.23397 0
M  V30 6110 H 589.302 0.549951 -0.617643 0
M  V30 6111 H 591.848 0.458344 -1.63393 0
M  V30 6112 H 590.62 1.37291 -3.66425 0
M  V30 6113 H 590.243 2.84246 -2.78011 0
M  V30 6114 N 591.24 1.41047 0.703093 0
M  V30 6115 C 592.172 1.38228 1.82827 0
M  V30 6116 C 593.185 0.285637 1.60275 0
M  V30 6117 O 594.374 0.54685 1.69917 0
M  V30 6118 C 591.474 1.13136 3.19458 0
M  V30 6119 C 590.647 2.34695 3.69103 0
M  V30 6120 C 589.706 2.05574 4.84382 0
M  V30 6121 O 588.732 2.78549 4.96386 0
M  V30 6122 N 589.934 1.04135 5.71083 0
M  V30 6123 H 592.699 2.35203 1.85741 0
M  V30 6124 H 590.26 1.35562 0.885125 0
M  V30 6125 H 592.252 0.916183 3.94193 0
M  V30 6126 H 590.822 0.247836 3.11616 0
M  V30 6127 H 590.042 2.71963 2.85359 0
M  V30 6128 H 591.33 3.15705 3.99009 0
M  V30 6129 H 590.728 0.43722 5.64008 0
M  V30 6130 H 589.285 0.886078 6.45749 0
M  V30 6131 N 592.718 -0.936591 1.26751 0
M  V30 6132 C 593.967 -1.67778 1.11953 0
M  V30 6133 C 594.28 -1.92694 -0.33589 0
M  V30 6134 O 595.486 -2.64682 -0.604618 0
M  V30 6135 C 593.942 -3.02138 1.95551 0
M  V30 6136 C 593.55 -2.84953 3.45696 0
M  V30 6137 C 595.294 -3.79917 1.89377 0
M  V30 6138 C 593.201 -4.14814 4.21525 0
M  V30 6139 H 592.131 -0.629275 0.415366 0
M  V30 6140 H 594.782 -1.04122 1.51099 0
M  V30 6141 H 593.164 -3.668 1.49243 0
M  V30 6142 H 594.338 -2.29112 3.99805 0
M  V30 6143 H 592.653 -2.20612 3.53156 0
M  V30 6144 H 595.25 -4.76134 2.43312 0
M  V30 6145 H 595.593 -4.07204 0.865464 0
M  V30 6146 H 596.126 -3.22037 2.33532 0
M  V30 6147 H 592.865 -3.92709 5.24843 0
M  V30 6148 H 592.385 -4.70352 3.72195 0
M  V30 6149 H 594.064 -4.83239 4.3022 0
M  V30 6150 N 594.196 -1.08629 -1.14182 0
M  V30 6151 C 595.444 -0.815731 -1.84906 0
M  V30 6152 C 595.765 0.660441 -1.83475 0
M  V30 6153 O 595.035 1.47888 -1.28476 0
M  V30 6154 H 593.615 -0.298773 -0.684648 0
M  V30 6155 H 596.277 -1.37274 -1.38354 0
M  V30 6156 H 595.373 -1.16193 -2.89665 0
M  V30 6157 N 595.674 1.31259 -0.872281 0
M  V30 6158 C 596.622 2.30404 -0.318897 0
M  V30 6159 C 597.616 1.5962 0.567267 0
M  V30 6160 O 598.822 1.74204 0.453111 0
M  V30 6161 H 595.197 0.747243 -0.0844474 0
M  V30 6162 H 597.168 2.74549 -1.16899 0
M  V30 6163 C 595.917 3.44608 0.462683 0
M  V30 6164 H 595.24 3.99248 -0.209936 0
M  V30 6165 H 596.68 4.1609 0.815187 0
M  V30 6166 C 595.139 2.93456 1.65485 0
M  V30 6167 O 595.669 2.92418 2.75417 0
M  V30 6168 N 593.875 2.49628 1.48776 0
M  V30 6169 H 593.422 2.50671 0.593452 0
M  V30 6170 H 593.38 2.15759 2.28682 0
M  V30 6171 N 597.152 0.631951 1.44375 0
M  V30 6172 C 598.568 0.297642 1.568 0
M  V30 6173 C 598.768 -1.19916 1.61934 0
M  V30 6174 O 597.824 -1.98324 1.56281 0
M  V30 6175 C 599.137 0.990286 2.83926 0
M  V30 6176 C 600.685 0.968507 2.97639 0
M  V30 6177 C 601.16 1.64163 4.27568 0
M  V30 6178 N 602.651 1.60826 4.34384 0
M  V30 6179 C 603.386 2.09802 5.33639 0
M  V30 6180 N 602.882 2.66973 6.39294 0
M  V30 6181 N 604.675 2.00426 5.25153 0
M  V30 6182 H 596.826 1.60353 1.39286 0
M  V30 6183 H 599.089 0.673142 0.667521 0
M  V30 6184 H 598.795 2.04519 2.8612 0
M  V30 6185 H 598.669 0.528563 3.73478 0
M  V30 6186 H 601.056 -0.0779247 2.94997 0
M  V30 6187 H 601.137 1.46873 2.09433 0
M  V30 6188 H 600.781 2.68752 4.3097 0
M  V30 6189 H 600.711 1.11624 5.14634 0
M  V30 6190 H 603.202 1.19087 3.58646 0
M  V30 6191 H 603.515 3.02074 7.11316 0
M  V30 6192 H 601.86 2.71024 6.39977 0
M  V30 6193 H 605.051 1.55483 4.41523 0
M  V30 6194 H 605.224 2.38906 6.02352 0
M  V30 6195 N 598.631 -1.53133 0.372548 0
M  V30 6196 C 600.042 -1.86404 -0.105155 0
M  V30 6197 C 600.393 -1.29289 -1.47576 0
M  V30 6198 O 599.518 -0.617646 -2.07398 0
M  V30 6199 C 600.113 -3.38223 -0.197588 0
M  V30 6200 C 598.672 -3.71266 -0.619556 0
M  V30 6201 C 597.819 -2.76353 0.228919 0
M  V30 6202 H 600.77 -1.47282 0.591077 0
M  V30 6203 H 600.791 -3.66577 -1.01987 0
M  V30 6204 H 600.303 -3.79763 0.800099 0
M  V30 6205 H 598.404 -3.35287 -1.62522 0
M  V30 6206 H 598.517 -4.77515 -0.389332 0
M  V30 6207 H 596.881 -2.52888 -0.303271 0
M  V30 6208 H 597.664 -3.20728 1.22428 0
M  V30 6209 N 600.109 -0.101901 -1.5727 0
M  V30 6210 C 601.039 0.851544 -2.17419 0
M  V30 6211 C 602.02 1.28942 -1.10941 0
M  V30 6212 O 603.205 1.35509 -1.39107 0
M  V30 6213 C 600.335 2.10816 -2.75996 0
M  V30 6214 C 599.289 1.80867 -3.87906 0
M  V30 6215 C 598.615 3.13413 -4.33216 0
M  V30 6216 C 599.915 1.0903 -5.10793 0
M  V30 6217 H 601.609 0.350381 -2.97343 0
M  V30 6218 H 599.155 0.16709 -1.43027 0
M  V30 6219 H 601.108 2.77959 -3.16729 0
M  V30 6220 H 599.832 2.63227 -1.93337 0
M  V30 6221 H 598.491 1.16119 -3.47724 0
M  V30 6222 H 598.139 3.63725 -3.47438 0
M  V30 6223 H 597.839 2.94155 -5.08671 0
M  V30 6224 H 599.363 3.81704 -4.76586 0
M  V30 6225 H 600.777 1.66295 -5.48652 0
M  V30 6226 H 599.174 0.99927 -5.91722 0
M  V30 6227 H 600.244 0.0741704 -4.84843 0
M  V30 6228 N 601.587 1.56661 0.17182 0
M  V30 6229 C 602.835 1.81606 0.886774 0
M  V30 6230 C 603.156 0.678818 1.82803 0
M  V30 6231 O 602.426 -0.301354 1.93568 0
M  V30 6232 H 601.006 0.669934 0.330451 0
M  V30 6233 H 603.668 1.94142 0.171757 0
M  V30 6234 H 602.764 2.75634 1.46398 0
M  V30 6235 N 603.065 -0.440357 1.51323 0
M  V30 6236 C 603.975 -1.55955 1.75258 0
M  V30 6237 C 604.991 -1.61933 0.636687 0
M  V30 6238 O 606.167 -1.79231 0.918593 0
M  V30 6239 C 603.232 -2.9196 1.86977 0
M  V30 6240 C 602.293 -2.96122 3.10822 0
M  V30 6241 C 601.526 -4.2564 3.21973 0
M  V30 6242 O 601.749 -5.17851 2.39137 0
M  V30 6243 O 600.683 -4.36025 4.14929 0
M  V30 6244 H 604.509 -1.38673 2.70191 0
M  V30 6245 H 602.094 -0.623055 1.35788 0
M  V30 6246 H 603.976 -3.72682 1.96688 0
M  V30 6247 H 602.651 -3.09375 0.952307 0
M  V30 6248 H 601.558 -2.14366 3.06591 0
M  V30 6249 H 602.891 -2.83651 4.02247 0
M  V30 6250 N 604.543 -1.41418 -0.695603 0
M  V30 6251 C 605.959 -1.23887 -1.00619 0
M  V30 6252 C 606.159 -0.128206 -2.01092 0
M  V30 6253 O 605.215 0.507408 -2.47349 0
M  V30 6254 C 606.528 -2.58816 -1.53083 0
M  V30 6255 C 608.076 -2.65998 -1.64967 0
M  V30 6256 C 608.551 -4.01244 -2.20833 0
M  V30 6257 N 610.042 -4.0309 -2.28194 0
M  V30 6258 C 610.777 -5.04539 -2.72448 0
M  V30 6259 N 610.273 -6.16378 -3.16306 0
M  V30 6260 N 612.066 -4.91901 -2.72011 0
M  V30 6261 H 604.217 -2.12379 -0.0300061 0
M  V30 6262 H 606.48 -0.944958 -0.0758797 0
M  V30 6263 H 606.186 -3.40842 -0.867147 0
M  V30 6264 H 606.06 -2.81299 -2.51298 0
M  V30 6265 H 608.447 -1.84331 -2.30448 0
M  V30 6266 H 608.528 -2.47325 -0.652982 0
M  V30 6267 H 608.172 -4.83359 -1.55968 0
M  V30 6268 H 608.102 -4.17257 -3.21254 0
M  V30 6269 H 610.593 -3.22341 -1.97242 0
M  V30 6270 H 610.906 -6.89658 -3.487 0
M  V30 6271 H 609.251 -6.19914 -3.14215 0
M  V30 6272 H 612.442 -4.03613 -2.37095 0
M  V30 6273 H 612.615 -5.71102 -3.06181 0
M  V30 6274 N 606.021 0.929856 -1.27246 0
M  V30 6275 C 606.951 2.04722 -1.12299 0
M  V30 6276 C 607.932 1.70082 -0.0250464 0
M  V30 6277 O 609.117 1.93176 -0.199141 0
M  V30 6278 C 606.247 3.38721 -0.767145 0
M  V30 6279 C 605.201 3.87466 -1.81808 0
M  V30 6280 C 604.527 5.18246 -1.31626 0
M  V30 6281 C 605.827 4.11095 -3.22177 0
M  V30 6282 H 607.521 2.17485 -2.05769 0
M  V30 6283 H 605.067 1.04503 -0.990715 0
M  V30 6284 H 607.02 4.16366 -0.649413 0
M  V30 6285 H 605.744 3.25967 0.203259 0
M  V30 6286 H 604.403 3.12012 -1.92468 0
M  V30 6287 H 604.051 5.01881 -0.335378 0
M  V30 6288 H 603.751 5.51829 -2.01887 0
M  V30 6289 H 605.275 5.98462 -1.21143 0
M  V30 6290 H 606.689 4.79316 -3.1453 0
M  V30 6291 H 605.086 4.55982 -3.90129 0
M  V30 6292 H 606.156 3.16468 -3.67391 0
M  V30 6293 N 607.499 1.09233 1.13605 0
M  V30 6294 C 608.449 0.6994 2.17008 0
M  V30 6295 C 609.433 -0.285238 1.58352 0
M  V30 6296 O 610.625 -0.09592 1.7674 0
M  V30 6297 C 607.754 0.11938 3.43092 0
M  V30 6298 C 606.84 1.13031 4.0876 0
M  V30 6299 N 607.231 2.31673 4.49623 0
M  V30 6300 C 605.529 0.967999 4.35369 0
M  V30 6301 C 606.23 2.95964 5.00779 0
M  V30 6302 N 605.206 2.23534 4.95513 0
M  V30 6303 H 609.008 1.60272 2.46354 0
M  V30 6304 H 606.522 0.968257 1.30378 0
M  V30 6305 H 608.519 -0.180122 4.16511 0
M  V30 6306 H 607.179 -0.778816 3.15221 0
M  V30 6307 H 608.19 2.69277 4.42391 0
M  V30 6308 H 604.867 0.124319 4.17315 0
M  V30 6309 H 606.257 3.96813 5.42208 0
M  V30 6310 N 608.977 -1.30795 0.87923 0
M  V30 6311 C 609.909 -2.27241 0.299025 0
M  V30 6312 C 610.922 -1.53472 -0.543166 0
M  V30 6313 O 612.111 -1.74756 -0.363651 0
M  V30 6314 C 609.211 -3.33655 -0.593931 0
M  V30 6315 C 608.384 -4.36857 0.2179 0
M  V30 6316 C 607.443 -5.22715 -0.604646 0
M  V30 6317 O 606.469 -5.69192 -0.0293838 0
M  V30 6318 N 607.671 -5.48008 -1.91488 0
M  V30 6319 H 610.436 -2.77667 1.12788 0
M  V30 6320 H 607.997 -1.43914 0.741637 0
M  V30 6321 H 609.989 -3.88013 -1.15012 0
M  V30 6322 H 608.559 -2.83202 -1.32346 0
M  V30 6323 H 607.779 -3.82444 0.955536 0
M  V30 6324 H 609.067 -5.02869 0.774614 0
M  V30 6325 H 608.465 -5.1202 -2.40525 0
M  V30 6326 H 607.022 -6.05264 -2.41864 0
M  V30 6327 N 610.455 -0.639598 -1.44038 0
M  V30 6328 C 611.68 -0.153117 -2.06834 0
M  V30 6329 C 612.105 1.16676 -1.47541 0
M  V30 6330 O 611.463 1.71769 -0.580093 0
M  V30 6331 C 611.511 -0.0609169 -3.60549 0
M  V30 6332 O 610.615 0.98071 -4.00569 0
M  V30 6333 H 609.956 -0.0886402 -0.658057 0
M  V30 6334 H 612.486 -0.878674 -1.84771 0
M  V30 6335 H 612.496 0.126892 -4.07803 0
M  V30 6336 H 611.171 -1.0245 -4.03084 0
M  V30 6337 H 609.748 0.766789 -3.64931 0
M  V30 6338 N 611.933 1.52934 -0.380664 0
M  V30 6339 C 613.21 1.93845 0.261417 0
M  V30 6340 C 613.59 1.31544 1.65104 0
M  V30 6341 O 612.938 0.480234 2.23397 0
M  V30 6342 C 613.148 3.47739 0.296466 0
M  V30 6343 C 614.496 4.21284 0.529578 0
M  V30 6344 O 615.52 3.54199 0.377041 0
M  V30 6345 O 614.379 5.40195 0.827753 0
M  V30 6346 H 611.473 0.811318 0.160285 0
M  V30 6347 H 614.019 1.64042 -0.434544 0
M  V30 6348 H 612.791 3.85395 -0.67724 0
M  V30 6349 H 612.414 3.8382 1.0377 0
M  V30 6350 N 613.412 0.11024 1.57214 0
M  V30 6351 C 614.66 -0.548783 1.94506 0
M  V30 6352 C 614.981 -1.67772 0.99386 0
M  V30 6353 O 614.251 -1.9584 0.0485841 0
M  V30 6354 H 612.831 -0.205715 0.718116 0
M  V30 6355 H 615.493 0.177127 1.94093 0
M  V30 6356 H 614.589 -0.949096 2.97319 0
M  V30 6357 N 614.89 -1.56749 -0.16351 0
M  V30 6358 C 616.136 -1.82704 -0.880168 0
M  V30 6359 C 616.469 -0.689311 -1.81555 0
M  V30 6360 O 615.744 0.308224 -1.92042 0
M  V30 6361 C 616.027 -3.19084 -1.66905 0
M  V30 6362 C 615.88 -4.43397 -0.756269 0
M  V30 6363 C 617.199 -3.52493 -2.63509 0
M  V30 6364 H 614.318 -0.664608 -0.318535 0
M  V30 6365 H 616.96 -1.89438 -0.146036 0
M  V30 6366 H 615.11 -3.13475 -2.2949 0
M  V30 6367 H 616.782 -4.61079 -0.14269 0
M  V30 6368 H 615.025 -4.33752 -0.0647944 0
M  V30 6369 H 615.696 -5.3539 -1.34393 0
M  V30 6370 H 618.172 -3.58606 -2.11047 0
M  V30 6371 H 617.048 -4.48979 -3.15767 0
M  V30 6372 H 617.309 -2.77597 -3.44082 0
M  V30 6373 N 616.368 0.432326 -1.51554 0
M  V30 6374 C 617.596 1.20364 -1.68286 0
M  V30 6375 C 618.011 1.84888 -0.38233 0
M  V30 6376 O 617.368 1.70924 0.639627 0
M  V30 6377 C 617.419 2.28398 -2.80208 0
M  V30 6378 O 617.14 1.66512 -4.05223 0
M  V30 6379 C 618.641 3.18584 -3.08251 0
M  V30 6380 H 615.861 0.36259 -0.564596 0
M  V30 6381 H 618.405 0.511647 -1.97996 0
M  V30 6382 H 616.56 2.93305 -2.53083 0
M  V30 6383 H 616.974 2.37951 -4.67418 0
M  V30 6384 H 618.448 3.90511 -3.90135 0
M  V30 6385 H 618.925 3.79628 -2.2086 0
M  V30 6386 H 619.531 2.59372 -3.37055 0
M  V30 6387 N 617.846 1.41785 0.688094 0
M  V30 6388 C 618.776 1.47 1.8142 0
M  V30 6389 C 619.757 0.327881 1.6691 0
M  V30 6390 O 620.942 0.540362 1.86531 0
M  V30 6391 C 618.072 1.35876 3.19617 0
M  V30 6392 C 617.026 2.47976 3.48844 0
M  V30 6393 C 616.352 2.21915 4.86475 0
M  V30 6394 C 617.652 3.90309 3.47068 0
M  V30 6395 H 619.346 2.41247 1.77314 0
M  V30 6396 H 616.892 1.16116 0.851651 0
M  V30 6397 H 618.845 1.38134 3.98117 0
M  V30 6398 H 617.569 0.38116 3.24368 0
M  V30 6399 H 616.228 2.45013 2.72698 0
M  V30 6400 H 615.876 1.2248 4.8786 0
M  V30 6401 H 615.576 2.97037 5.06994 0
M  V30 6402 H 617.1 2.25901 5.67275 0
M  V30 6403 H 618.514 3.94947 4.1556 0
M  V30 6404 H 616.911 4.65175 3.7912 0
M  V30 6405 H 617.981 4.17927 2.45896 0
M  V30 6406 N 619.324 -0.923095 1.27737 0
M  V30 6407 C 620.274 -2.01061 1.0751 0
M  V30 6408 C 621.258 -1.609 0.00165451 0
M  V30 6409 O 622.45 -1.75618 0.220724 0
M  V30 6410 C 619.579 -3.35467 0.729162 0
M  V30 6411 C 618.665 -3.82059 1.84098 0
M  V30 6412 N 619.056 -4.01115 3.08124 0
M  V30 6413 C 617.354 -4.11135 1.7287 0
M  V30 6414 C 618.055 -4.39989 3.80506 0
M  V30 6415 N 617.031 -4.47721 3.08297 0
M  V30 6416 H 620.833 -2.13832 2.01626 0
M  V30 6417 H 618.347 -1.11027 1.18519 0
M  V30 6418 H 620.344 -4.13049 0.565355 0
M  V30 6419 H 619.004 -3.24056 -0.204334 0
M  V30 6420 H 620.015 -3.87294 3.43836 0
M  V30 6421 H 616.692 -4.08412 0.866352 0
M  V30 6422 H 618.082 -4.62773 4.87125 0
M  V30 6423 N 620.802 -1.09834 -1.13024 0
M  V30 6424 C 621.712 -0.753731 -2.22162 0
M  V30 6425 C 622.728 0.246105 -1.72251 0
M  V30 6426 O 623.904 0.0864051 -2.01215 0
M  V30 6427 C 620.969 -0.183958 -3.46212 0
M  V30 6428 C 620.03 -1.24028 -4.10993 0
M  V30 6429 C 619.263 -0.697597 -5.29121 0
M  V30 6430 O 619.486 0.478092 -5.68393 0
M  V30 6431 O 618.42 -1.4546 -5.84059 0
M  V30 6432 H 622.246 -1.66456 -2.5402 0
M  V30 6433 H 619.831 -0.873026 -1.21238 0
M  V30 6434 H 621.713 0.130257 -4.21199 0
M  V30 6435 H 620.388 0.699823 -3.16045 0
M  V30 6436 H 619.295 -1.60725 -3.37814 0
M  V30 6437 H 620.628 -2.09685 -4.45301 0
M  V30 6438 N 622.28 1.30327 -0.886154 0
M  V30 6439 C 623.51 1.99964 -0.519421 0
M  V30 6440 C 623.918 1.66593 0.89686 0
M  V30 6441 O 623.261 0.899886 1.60149 0
M  V30 6442 C 623.323 3.54187 -0.615795 0
M  V30 6443 C 622.987 4.11078 -1.9966 0
M  V30 6444 C 623.984 4.26985 -2.96614 0
M  V30 6445 C 621.669 4.46429 -2.30231 0
M  V30 6446 C 623.663 4.77456 -4.22273 0
M  V30 6447 C 621.35 4.966 -3.56135 0
M  V30 6448 C 622.348 5.12066 -4.5197 0
M  V30 6449 O 622.036 5.61154 -5.7564 0
M  V30 6450 H 621.768 0.645979 -0.199217 0
M  V30 6451 H 624.322 1.67154 -1.19368 0
M  V30 6452 H 622.552 3.86528 0.115448 0
M  V30 6453 H 624.241 4.05065 -0.26017 0
M  V30 6454 H 625.007 3.99975 -2.74308 0
M  V30 6455 H 620.886 4.33658 -1.56404 0
M  V30 6456 H 624.43 4.89444 -4.97082 0
M  V30 6457 H 620.327 5.23045 -3.78277 0
M  V30 6458 H 621.095 5.79494 -5.78039 0
M  V30 6459 N 623.758 0.647228 1.43697 0
M  V30 6460 C 625.174 0.314256 1.56476 0
M  V30 6461 C 625.374 -1.18191 1.63196 0
M  V30 6462 O 624.43 -1.96655 1.58376 0
M  V30 6463 C 625.743 1.02034 2.82859 0
M  V30 6464 C 627.291 1.00002 2.96595 0
M  V30 6465 C 627.766 1.68689 4.25803 0
M  V30 6466 N 629.257 1.65424 4.32654 0
M  V30 6467 C 629.992 2.1545 5.31384 0
M  V30 6468 N 629.488 2.73738 6.36427 0
M  V30 6469 N 631.281 2.05985 5.22998 0
M  V30 6470 H 623.432 1.61821 1.37578 0
M  V30 6471 H 625.695 0.680184 0.660344 0
M  V30 6472 H 625.401 2.07542 2.83935 0
M  V30 6473 H 625.275 0.568146 3.72897 0
M  V30 6474 H 627.662 -0.0466319 2.95063 0
M  V30 6475 H 627.743 1.49086 2.07863 0
M  V30 6476 H 627.387 2.73308 4.28095 0
M  V30 6477 H 627.317 1.17076 5.13421 0
M  V30 6478 H 629.808 1.22884 3.57363 0
M  V30 6479 H 630.121 3.09602 7.08072 0
M  V30 6480 H 628.466 2.77796 6.37067 0
M  V30 6481 H 631.657 1.60157 4.39849 0
M  V30 6482 H 631.83 2.45281 5.99784 0
M  V30 6483 N 625.236 -1.5273 0.388769 0
M  V30 6484 C 626.484 -2.01174 -0.193208 0
M  V30 6485 C 626.805 -1.27705 -1.47365 0
M  V30 6486 O 626.075 -0.396966 -1.91836 0
M  V30 6487 H 624.655 -0.743287 -0.0743871 0
M  V30 6488 H 627.317 -1.87826 0.520336 0
M  V30 6489 H 626.413 -3.09477 -0.403803 0
M  V30 6490 N 626.714 -0.118576 -1.57153 0
M  V30 6491 C 627.677 0.817464 -2.14127 0
M  V30 6492 C 628.677 1.1949 -1.07604 0
M  V30 6493 O 629.867 1.12048 -1.33382 0
M  V30 6494 C 626.999 2.10541 -2.68115 0
M  V30 6495 H 628.192 0.322339 -2.98163 0
M  V30 6496 H 625.745 0.130655 -1.55753 0
M  V30 6497 H 626.48 2.64485 -1.87665 0
M  V30 6498 H 626.265 1.84425 -3.4602 0
M  V30 6499 H 627.755 2.77453 -3.12105 0
M  V30 6500 N 628.193 1.56834 0.155195 0
M  V30 6501 C 629.156 1.96748 1.17571 0
M  V30 6502 C 630.156 0.853006 1.3631 0
M  V30 6503 O 631.346 1.11978 1.33441 0
M  V30 6504 C 628.478 2.27631 2.53765 0
M  V30 6505 H 629.671 2.88085 0.833498 0
M  V30 6506 H 627.224 1.51141 0.398242 0
M  V30 6507 H 627.959 1.39059 2.92973 0
M  V30 6508 H 627.744 3.0888 2.41527 0
M  V30 6509 H 629.234 2.59377 3.27282 0
M  V30 6510 N 629.671 -0.424282 1.51781 0
M  V30 6511 C 630.634 -1.49848 1.73431 0
M  V30 6512 C 631.634 -1.49016 0.604225 0
M  V30 6513 O 632.824 -1.50808 0.871935 0
M  V30 6514 C 629.956 -2.89332 1.80277 0
M  V30 6515 H 631.149 -1.3195 2.69312 0
M  V30 6516 H 628.702 -0.653809 1.41968 0
M  V30 6517 H 629.437 -3.12618 0.862568 0
M  V30 6518 H 629.222 -2.9134 2.62419 0
M  V30 6519 H 630.712 -3.67233 1.98821 0
M  V30 6520 N 631.149 -1.42148 -0.680565 0
M  V30 6521 C 632.079 -1.4796 -1.80638 0
M  V30 6522 C 633.06 -0.336728 -1.66734 0
M  V30 6523 O 634.245 -0.550247 -1.86242 0
M  V30 6524 C 631.375 -1.37569 -3.18892 0
M  V30 6525 C 630.329 -2.49823 -3.47524 0
M  V30 6526 C 629.655 -2.24491 -4.85291 0
M  V30 6527 C 630.955 -3.92144 -3.44994 0
M  V30 6528 H 632.649 -2.42184 -1.76032 0
M  V30 6529 H 630.195 -1.16566 -0.845481 0
M  V30 6530 H 632.148 -1.40243 -3.97379 0
M  V30 6531 H 630.872 -0.398357 -3.24162 0
M  V30 6532 H 629.531 -2.46455 -2.71395 0
M  V30 6533 H 629.179 -1.25066 -4.87204 0
M  V30 6534 H 628.879 -2.99722 -5.05411 0
M  V30 6535 H 630.403 -2.28906 -5.66069 0
M  V30 6536 H 631.817 -3.97145 -4.13459 0
M  V30 6537 H 630.214 -4.67179 -3.76648 0
M  V30 6538 H 631.284 -4.19225 -2.43676 0
M  V30 6539 N 632.627 0.916307 -1.28225 0
M  V30 6540 C 633.557 2.0352 -1.14464 0
M  V30 6541 C 634.538 1.70045 -0.0430844 0
M  V30 6542 O 635.723 1.92954 -0.219619 0
M  V30 6543 C 632.853 3.37889 -0.803027 0
M  V30 6544 C 631.807 3.85516 -1.85908 0
M  V30 6545 C 631.133 5.1682 -1.37116 0
M  V30 6546 C 632.433 4.07655 -3.26519 0
M  V30 6547 H 634.127 2.1529 -2.08064 0
M  V30 6548 H 631.673 1.03446 -1.00174 0
M  V30 6549 H 633.626 4.15654 -0.693537 0
M  V30 6550 H 632.35 3.26164 0.168674 0
M  V30 6551 H 631.009 3.09953 -1.95767 0
M  V30 6552 H 630.657 5.01497 -0.38859 0
M  V30 6553 H 630.357 5.49657 -2.07728 0
M  V30 6554 H 631.881 5.97143 -1.27484 0
M  V30 6555 H 633.295 4.75953 -3.19596 0
M  V30 6556 H 631.692 4.51818 -3.94943 0
M  V30 6557 H 632.762 3.12553 -3.70727 0
M  V30 6558 N 634.105 1.10431 1.1244 0
M  V30 6559 C 635.035 0.775143 2.20258 0
M  V30 6560 C 636.016 -0.25186 1.68225 0
M  V30 6561 O 637.201 -0.117637 1.93843 0
M  V30 6562 C 634.331 0.206133 3.46688 0
M  V30 6563 C 633.285 1.16382 4.11873 0
M  V30 6564 C 632.611 0.456014 5.32752 0
M  V30 6565 C 633.911 2.5104 4.58013 0
M  V30 6566 H 635.605 1.67665 2.4805 0
M  V30 6567 H 633.151 0.807595 1.19222 0
M  V30 6568 H 635.104 -0.036291 4.21384 0
M  V30 6569 H 633.828 -0.730614 3.18323 0
M  V30 6570 H 632.487 1.39169 3.39157 0
M  V30 6571 H 632.135 -0.485203 5.00654 0
M  V30 6572 H 631.835 1.09466 5.77314 0
M  V30 6573 H 633.359 0.222135 6.10196 0
M  V30 6574 H 634.773 2.32401 5.24083 0
M  V30 6575 H 633.17 3.10789 5.13352 0
M  V30 6576 H 634.24 3.11039 3.71998 0
M  V30 6577 N 635.583 -1.29855 0.893053 0
M  V30 6578 C 636.994 -1.77946 0.564998 0
M  V30 6579 C 637.345 -1.73339 -0.919134 0
M  V30 6580 O 636.47 -1.3152 -1.71847 0
M  V30 6581 C 637.065 -3.23118 1.01883 0
M  V30 6582 C 635.624 -3.69013 0.742051 0
M  V30 6583 C 634.771 -2.50121 1.19727 0
M  V30 6584 H 637.722 -1.16611 1.07646 0
M  V30 6585 H 637.743 -3.78875 0.351249 0
M  V30 6586 H 637.255 -3.26439 2.09903 0
M  V30 6587 H 635.356 -3.71173 -0.325816 0
M  V30 6588 H 635.469 -4.60117 1.33527 0
M  V30 6589 H 633.833 -2.47128 0.616418 0
M  V30 6590 H 634.616 -2.56174 2.28538 0
M  V30 6591 N 637.061 -0.65484 -1.43351 0
M  V30 6592 C 637.994 0.0855537 -2.2804 0
M  V30 6593 C 638.972 0.828301 -1.39921 0
M  V30 6594 O 640.156 0.827539 -1.69364 0
M  V30 6595 C 637.283 1.12792 -3.19368 0
M  V30 6596 C 636.329 0.483037 -4.23756 0
M  V30 6597 S 637.162 -0.744605 -5.30298 0
M  V30 6598 C 638.318 0.297187 -6.25194 0
M  V30 6599 H 638.551 -0.632831 -2.90487 0
M  V30 6600 H 636.084 -0.44373 -1.47886 0
M  V30 6601 H 638.042 1.7243 -3.72529 0
M  V30 6602 H 636.703 1.81863 -2.56095 0
M  V30 6603 H 635.896 1.26888 -4.87766 0
M  V30 6604 H 635.498 -0.0392713 -3.73979 0
M  V30 6605 H 637.79 1.1629 -6.67445 0
M  V30 6606 H 638.733 -0.30793 -7.0743 0
M  V30 6607 H 639.141 0.633721 -5.60932 0
M  V30 6608 N 638.539 1.52521 -0.396863 0
M  V30 6609 C 639.767 2.06091 0.18275 0
M  V30 6610 C 640.182 1.26796 1.39886 0
M  V30 6611 O 639.539 0.316585 1.79733 0
M  V30 6612 C 639.59 3.57362 0.545377 0
M  V30 6613 O 639.311 4.33656 -0.622428 0
M  V30 6614 C 640.812 4.27305 1.18004 0
M  V30 6615 H 638.032 0.670504 0.025789 0
M  V30 6616 H 640.576 1.96561 -0.564276 0
M  V30 6617 H 638.731 3.66941 1.2423 0
M  V30 6618 H 639.145 5.23507 -0.322662 0
M  V30 6619 H 640.619 5.34366 1.38408 0
M  V30 6620 H 641.096 3.83 2.1496 0
M  V30 6621 H 641.702 4.22064 0.523671 0
M  V30 6622 N 640.017 0.126909 1.57088 0
M  V30 6623 C 641.428 -0.397201 1.82426 0
M  V30 6624 C 641.779 -1.66084 1.04453 0
M  V30 6625 O 640.904 -2.14534 0.283552 0
M  V30 6626 C 641.499 -0.727411 3.30899 0
M  V30 6627 C 640.058 -1.19612 3.56889 0
M  V30 6628 C 639.205 -0.20885 2.76512 0
M  V30 6629 H 642.156 0.351924 1.54749 0
M  V30 6630 H 642.177 -1.58407 3.45959 0
M  V30 6631 H 641.689 0.19247 3.87622 0
M  V30 6632 H 639.79 -2.13263 3.05532 0
M  V30 6633 H 639.903 -1.13598 4.65438 0
M  V30 6634 H 638.267 -0.697479 2.44964 0
M  V30 6635 H 639.05 0.704267 3.35998 0
M  V30 6636 N 641.495 -1.56914 -0.146875 0
M  V30 6637 C 642.425 -2.01308 -1.1831 0
M  V30 6638 C 643.406 -0.892664 -1.44795 0
M  V30 6639 O 644.591 -1.16048 -1.55713 0
M  V30 6640 C 641.721 -2.3938 -2.51624 0
M  V30 6641 C 640.675 -3.54608 -2.3966 0
M  V30 6642 C 640.001 -3.78493 -3.77686 0
M  V30 6643 C 641.301 -4.87269 -1.88058 0
M  V30 6644 H 642.995 -2.88123 -0.813964 0
M  V30 6645 H 640.541 -1.38615 -0.3901 0
M  V30 6646 H 642.494 -2.69037 -3.24341 0
M  V30 6647 H 641.218 -1.49502 -2.90373 0
M  V30 6648 H 639.877 -3.25116 -1.69396 0
M  V30 6649 H 639.525 -2.85866 -4.13871 0
M  V30 6650 H 639.225 -4.56039 -3.70543 0
M  V30 6651 H 640.749 -4.10576 -4.51951 0
M  V30 6652 H 642.163 -5.15644 -2.50568 0
M  V30 6653 H 640.56 -5.68622 -1.91805 0
M  V30 6654 H 641.63 -4.77634 -0.836277 0
M  V30 6655 N 642.974 0.416227 -1.52004 0
M  V30 6656 C 643.904 1.51365 -1.77795 0
M  V30 6657 C 644.885 1.58059 -0.628601 0
M  V30 6658 O 646.07 1.73447 -0.873478 0
M  V30 6659 C 643.2 2.89256 -1.92219 0
M  V30 6660 C 642.154 2.97415 -3.0778 0
M  V30 6661 C 641.48 4.37492 -3.07417 0
M  V30 6662 C 642.78 2.69551 -4.47369 0
M  V30 6663 H 644.474 1.30033 -2.69688 0
M  V30 6664 H 642.02 0.624112 -1.29772 0
M  V30 6665 H 643.973 3.66008 -2.08845 0
M  V30 6666 H 642.697 3.11866 -0.969917 0
M  V30 6667 H 641.356 2.23107 -2.90893 0
M  V30 6668 H 641.004 4.571 -2.09925 0
M  V30 6669 H 640.704 4.43877 -3.85029 0
M  V30 6670 H 642.228 5.16188 -3.26162 0
M  V30 6671 H 643.642 3.36028 -4.64497 0
M  V30 6672 H 642.039 2.87321 -5.26846 0
M  V30 6673 H 643.109 1.65029 -4.55953 0
M  V30 6674 N 644.452 1.42507 0.673017 0
M  V30 6675 C 645.699 1.43072 1.43306 0
M  V30 6676 C 646.027 0.0478004 1.94441 0
M  V30 6677 O 645.282 -0.944106 1.71421 0
M  V30 6678 C 645.581 2.40351 2.64511 0
M  V30 6679 C 645.247 3.8669 2.31908 0
M  V30 6680 C 643.909 4.26551 2.22728 0
M  V30 6681 C 646.261 4.78991 2.05467 0
M  V30 6682 C 643.589 5.56691 1.85234 0
M  V30 6683 C 645.941 6.09476 1.69477 0
M  V30 6684 C 644.605 6.48334 1.58808 0
M  V30 6685 H 643.875 0.523536 0.524395 0
M  V30 6686 H 646.522 1.75459 0.76723 0
M  V30 6687 H 644.827 2.01297 3.36135 0
M  V30 6688 H 646.524 2.38051 3.22696 0
M  V30 6689 H 643.114 3.55132 2.39956 0
M  V30 6690 H 647.298 4.48982 2.11492 0
M  V30 6691 H 642.554 5.85657 1.75545 0
M  V30 6692 H 646.728 6.80482 1.48043 0
M  V30 6693 H 644.355 7.49084 1.29525 0
M  V30 6694 N 645.93 -0.909495 1.28709 0
M  V30 6695 C 646.862 -2.01729 1.08804 0
M  V30 6696 C 647.875 -1.62755 0.0384739 0
M  V30 6697 O 649.064 -1.76259 0.281977 0
M  V30 6698 C 646.164 -3.32952 0.63217 0
M  V30 6699 C 645.337 -4.00512 1.75809 0
M  V30 6700 C 644.396 -5.10019 1.29488 0
M  V30 6701 O 643.422 -5.32986 1.99787 0
M  V30 6702 N 644.624 -5.80278 0.1604 0
M  V30 6703 H 647.389 -2.19362 2.04207 0
M  V30 6704 H 644.95 -1.08106 1.20518 0
M  V30 6705 H 646.942 -4.03543 0.305802 0
M  V30 6706 H 645.512 -3.11759 -0.229134 0
M  V30 6707 H 644.732 -3.23413 2.25383 0
M  V30 6708 H 646.02 -4.42395 2.51325 0
M  V30 6709 H 645.418 -5.64094 -0.425937 0
M  V30 6710 H 643.975 -6.51713 -0.106663 0
M  V30 6711 N 647.408 -1.11026 -1.11852 0
M  V30 6712 C 648.656 -0.854769 -1.83134 0
M  V30 6713 C 648.977 0.621375 -1.84835 0
M  V30 6714 O 648.247 1.45129 -1.31584 0
M  V30 6715 H 646.827 -0.313229 -0.678157 0
M  V30 6716 H 649.489 -1.40178 -1.35411 0
M  V30 6717 H 648.585 -1.22311 -2.87135 0
M  V30 6718 N 648.886 1.2938 -0.899927 0
M  V30 6719 C 649.818 2.26737 -0.335139 0
M  V30 6720 C 650.831 1.54316 0.518681 0
M  V30 6721 O 652.02 1.75313 0.335803 0
M  V30 6722 C 649.12 3.34558 0.540774 0
M  V30 6723 C 648.293 4.36455 -0.287372 0
M  V30 6724 C 647.352 5.2361 0.52141 0
M  V30 6725 O 646.378 5.69167 -0.0611735 0
M  V30 6726 N 647.58 5.50985 1.82745 0
M  V30 6727 H 650.345 2.75838 -1.17191 0
M  V30 6728 H 647.906 1.42716 -0.764438 0
M  V30 6729 H 649.898 3.89794 1.08825 0
M  V30 6730 H 648.468 2.85272 1.27823 0
M  V30 6731 H 647.688 3.80875 -1.01626 0
M  V30 6732 H 648.976 5.01573 -0.854518 0
M  V30 6733 H 648.374 5.15781 2.32349 0
M  V30 6734 H 646.931 6.09036 2.32204 0
M  V30 6735 N 650.364 0.662433 1.43002 0
M  V30 6736 C 651.274 -0.0239199 2.34588 0
M  V30 6737 C 652.29 -0.802255 1.54402 0
M  V30 6738 O 653.466 -0.747401 1.87018 0
M  V30 6739 C 650.531 -0.972098 3.32793 0
M  V30 6740 C 649.592 -0.189673 4.28881 0
M  V30 6741 C 648.825 -1.09269 5.22395 0
M  V30 6742 O 649.048 -2.33209 5.20547 0
M  V30 6743 O 647.982 -0.560136 5.99288 0
M  V30 6744 H 651.808 0.730171 2.94792 0
M  V30 6745 H 649.393 0.422635 1.43297 0
M  V30 6746 H 651.275 -1.51676 3.93157 0
M  V30 6747 H 649.95 -1.70626 2.75079 0
M  V30 6748 H 648.857 0.398794 3.71968 0
M  V30 6749 H 650.19 0.50511 4.89601 0
M  V30 6750 N 651.842 -1.52309 0.404946 0
M  V30 6751 C 653.088 -2.02731 -0.164857 0
M  V30 6752 C 653.443 -1.28543 -1.43159 0
M  V30 6753 O 652.736 -0.381883 -1.87756 0
M  V30 6754 C 652.93 -3.54284 -0.470895 0
M  V30 6755 C 652.759 -4.43152 0.764625 0
M  V30 6756 C 651.529 -4.88594 1.28858 0
M  V30 6757 C 653.727 -4.874 1.64152 0
M  V30 6758 N 651.709 -5.61577 2.48001 0
M  V30 6759 C 653.08 -5.59121 2.67924 0
M  V30 6760 C 655.135 -4.69421 1.65978 0
M  V30 6761 C 653.838 -6.14772 3.73427 0
M  V30 6762 C 655.864 -5.25966 2.70396 0
M  V30 6763 C 655.226 -5.97606 3.7289 0
M  V30 6764 H 651.325 -0.78169 -0.0220025 0
M  V30 6765 H 653.909 -1.86522 0.558354 0
M  V30 6766 H 652.08 -3.70574 -1.16315 0
M  V30 6767 H 653.812 -3.91394 -1.02921 0
M  V30 6768 H 650.567 -4.6596 0.847232 0
M  V30 6769 H 650.991 -6.02712 3.08329 0
M  V30 6770 H 655.633 -4.13524 0.88079 0
M  V30 6771 H 653.351 -6.69743 4.52184 0
M  V30 6772 H 656.937 -5.13926 2.72711 0
M  V30 6773 H 655.817 -6.40577 4.52361 0
M  V30 6774 N 653.32 -0.135238 -1.57019 0
M  V30 6775 C 654.283 0.794707 -2.14981 0
M  V30 6776 C 655.283 1.18342 -1.08866 0
M  V30 6777 O 656.473 1.10627 -1.34563 0
M  V30 6778 C 653.605 2.07685 -2.70333 0
M  V30 6779 H 654.798 0.290696 -2.98488 0
M  V30 6780 H 652.351 0.114128 -1.55883 0
M  V30 6781 H 653.086 2.6248 -1.9046 0
M  V30 6782 H 652.871 1.80745 -3.47957 0
M  V30 6783 H 654.361 2.74127 -3.1503 0
M  V30 6784 N 654.798 1.5699 0.138552 0
M  V30 6785 C 655.761 1.97984 1.15478 0
M  V30 6786 C 656.761 0.867416 1.35398 0
M  V30 6787 O 657.951 1.13387 1.32246 0
M  V30 6788 C 655.083 2.3031 2.51337 0
M  V30 6789 H 656.276 2.88953 0.802896 0
M  V30 6790 H 653.829 1.51555 0.382189 0
M  V30 6791 H 654.564 1.42159 2.91481 0
M  V30 6792 H 654.349 3.11425 2.38237 0
M  V30 6793 H 655.839 2.62834 3.24512 0
M  V30 6794 N 656.276 -0.40816 1.52223 0
M  V30 6795 C 657.501 -1.18127 1.70472 0
M  V30 6796 C 657.926 -1.83491 0.41384 0
M  V30 6797 O 657.284 -1.70047 -0.628778 0
M  V30 6798 C 657.332 -2.21935 2.84213 0
M  V30 6799 O 656.436 -3.28099 2.4985 0
M  V30 6800 H 655.777 -0.344781 0.56747 0
M  V30 6801 H 658.307 -0.478328 1.9893 0
M  V30 6802 H 658.317 -2.66248 3.09153 0
M  V30 6803 H 656.992 -1.73744 3.7787 0
M  V30 6804 H 655.569 -2.89058 2.35584 0
M  V30 6805 N 657.755 -1.42862 -0.66545 0
M  V30 6806 C 658.983 -1.47246 -1.45349 0
M  V30 6807 C 659.398 -0.0865944 -1.88601 0
M  V30 6808 O 658.755 0.900652 -1.58728 0
M  V30 6809 C 658.806 -2.40772 -2.6965 0
M  V30 6810 O 658.527 -3.73968 -2.2821 0
M  V30 6811 C 660.028 -2.54272 -3.63126 0
M  V30 6812 H 657.248 -0.500497 -0.446927 0
M  V30 6813 H 659.792 -1.87477 -0.816871 0
M  V30 6814 H 657.947 -2.0377 -3.29479 0
M  V30 6815 H 658.361 -4.24146 -3.08546 0
M  V30 6816 H 659.835 -3.23815 -4.47043 0
M  V30 6817 H 660.312 -1.58364 -4.09656 0
M  V30 6818 H 660.918 -2.92036 -3.09185 0
M  V30 6819 N 659.233 0.902656 -1.29189 0
M  V30 6820 C 660.644 1.46809 -1.15343 0
M  V30 6821 C 660.995 1.94568 0.252517 0
M  V30 6822 O 660.12 1.83454 1.14777 0
M  V30 6823 C 660.715 2.66829 -2.08776 0
M  V30 6824 C 659.274 3.19518 -1.98961 0
M  V30 6825 C 658.421 1.92212 -1.99874 0
M  V30 6826 H 661.372 0.714282 -1.41717 0
M  V30 6827 H 661.393 3.42465 -1.65826 0
M  V30 6828 H 660.905 2.32039 -3.11094 0
M  V30 6829 H 659.006 3.59008 -0.99721 0
M  V30 6830 H 659.119 3.84016 -2.86477 0
M  V30 6831 H 657.483 2.0979 -1.44431 0
M  V30 6832 H 658.266 1.59702 -3.03891 0
M  V30 6833 N 660.711 1.11618 1.11262 0
M  V30 6834 C 661.958 0.86618 1.8304 0
M  V30 6835 C 662.286 -0.608149 1.84748 0
M  V30 6836 O 661.541 -1.46508 1.29745 0
M  V30 6837 C 661.84 1.37529 3.2988 0
M  V30 6838 C 661.506 2.86317 3.4833 0
M  V30 6839 C 660.168 3.26945 3.53073 0
M  V30 6840 C 662.52 3.82136 3.54431 0
M  V30 6841 C 659.848 4.62117 3.61475 0
M  V30 6842 C 662.2 5.17128 3.64365 0
M  V30 6843 C 660.864 5.57312 3.67369 0
M  V30 6844 H 660.134 0.316958 0.66979 0
M  V30 6845 H 662.781 1.3949 1.31205 0
M  V30 6846 H 661.086 0.766842 3.84222 0
M  V30 6847 H 662.783 1.15817 3.83911 0
M  V30 6848 H 659.373 2.53889 3.45309 0
M  V30 6849 H 663.557 3.51847 3.50025 0
M  V30 6850 H 658.813 4.92655 3.62079 0
M  V30 6851 H 662.987 5.91208 3.68029 0
M  V30 6852 H 660.614 6.62045 3.73632 0
M  V30 6853 N 662.189 -1.289 0.906776 0
M  V30 6854 C 663.121 -2.26556 0.347159 0
M  V30 6855 C 664.134 -1.54589 -0.51049 0
M  V30 6856 O 665.323 -1.75489 -0.326501 0
M  V30 6857 C 662.423 -3.3484 -0.523024 0
M  V30 6858 C 661.596 -4.36296 0.310515 0
M  V30 6859 C 660.655 -5.23879 -0.493634 0
M  V30 6860 O 659.681 -5.69127 0.0913569 0
M  V30 6861 N 660.883 -5.51946 -1.7982 0
M  V30 6862 H 663.648 -2.75212 1.18652 0
M  V30 6863 H 661.209 -1.42309 0.771996 0
M  V30 6864 H 663.201 -3.90366 -1.06756 0
M  V30 6865 H 661.771 -2.85946 -1.26309 0
M  V30 6866 H 660.991 -3.80331 1.03644 0
M  V30 6867 H 662.279 -5.01113 0.881106 0
M  V30 6868 H 661.677 -5.17006 -2.2961 0
M  V30 6869 H 660.234 -6.10258 -2.28971 0
M  V30 6870 N 663.667 -0.670007 -1.42649 0
M  V30 6871 C 664.914 -0.190286 -2.01604 0
M  V30 6872 C 665.242 1.20155 -1.52948 0
M  V30 6873 O 664.497 1.81964 -0.72026 0
M  V30 6874 C 664.796 -0.168298 -3.57004 0
M  V30 6875 C 664.462 -1.50415 -4.25072 0
M  V30 6876 C 663.124 -1.86992 -4.43382 0
M  V30 6877 C 665.476 -2.38414 -4.63474 0
M  V30 6878 C 662.804 -3.11203 -4.97363 0
M  V30 6879 C 665.156 -3.61933 -5.18833 0
M  V30 6880 C 663.82 -3.98685 -5.35356 0
M  V30 6881 H 663.09 -0.0696305 -0.737721 0
M  V30 6882 H 665.737 -0.864044 -1.70899 0
M  V30 6883 H 664.042 0.588958 -3.87348 0
M  V30 6884 H 665.739 0.22001 -4.00396 0
M  V30 6885 H 662.329 -1.20959 -4.11177 0
M  V30 6886 H 666.513 -2.11442 -4.49006 0
M  V30 6887 H 661.769 -3.39705 -5.08341 0
M  V30 6888 H 665.943 -4.30326 -5.47533 0
M  V30 6889 H 663.57 -4.95009 -5.76949 0
M  V30 6890 N 665.145 1.52092 -0.413018 0
M  V30 6891 C 666.392 2.01855 0.161497 0
M  V30 6892 C 666.72 1.29845 1.44812 0
M  V30 6893 O 665.975 0.394471 1.91683 0
M  V30 6894 C 666.274 3.54529 0.4521 0
M  V30 6895 C 665.94 4.4469 -0.745788 0
M  V30 6896 C 664.602 4.69053 -1.07435 0
M  V30 6897 C 666.954 4.97742 -1.54604 0
M  V30 6898 C 664.282 5.43717 -2.20429 0
M  V30 6899 C 666.634 5.73642 -2.66678 0
M  V30 6900 C 665.298 5.96277 -3.00016 0
M  V30 6901 H 664.568 0.73864 0.0590961 0
M  V30 6902 H 667.215 1.83274 -0.555234 0
M  V30 6903 H 665.52 3.7131 1.25045 0
M  V30 6904 H 667.217 3.90546 0.909647 0
M  V30 6905 H 663.807 4.25907 -0.479725 0
M  V30 6906 H 667.991 4.78824 -1.30543 0
M  V30 6907 H 663.247 5.59462 -2.46602 0
M  V30 6908 H 667.421 6.13746 -3.29072 0
M  V30 6909 H 665.048 6.53913 -3.87688 0
M  V30 6910 N 666.623 0.143563 1.56945 0
M  V30 6911 C 667.848 -0.518701 2.00809 0
M  V30 6912 C 668.273 -1.5785 1.02298 0
M  V30 6913 O 667.631 -1.813 -0.0017839 0
M  V30 6914 C 667.679 -1.09929 3.43436 0
M  V30 6915 O 666.783 -2.21425 3.47915 0
M  V30 6916 H 666.124 -0.127215 0.6517 0
M  V30 6917 H 668.654 0.239283 2.03196 0
M  V30 6918 H 668.664 -1.4288 3.82164 0
M  V30 6919 H 667.339 -0.323162 4.14643 0
M  V30 6920 H 665.916 -1.89728 3.21026 0
M  V30 6921 N 668.101 -1.57061 -0.130224 0
M  V30 6922 C 669.378 -1.75205 -0.869631 0
M  V30 6923 C 669.758 -0.716063 -1.98584 0
M  V30 6924 O 669.106 0.262032 -2.26993 0
M  V30 6925 C 669.316 -3.19835 -1.39666 0
M  V30 6926 C 670.664 -3.82011 -1.85345 0
M  V30 6927 O 671.688 -3.23368 -1.49371 0
M  V30 6928 O 670.547 -4.85064 -2.51744 0
M  V30 6929 H 667.641 -0.716977 -0.412157 0
M  V30 6930 H 670.187 -1.69311 -0.11484 0
M  V30 6931 H 668.959 -3.86745 -0.595288 0
M  V30 6932 H 668.582 -3.30222 -2.21448 0
M  V30 6933 N 669.579 0.400081 -1.52437 0
M  V30 6934 C 670.529 1.48734 -1.72807 0
M  V30 6935 C 671.513 1.50004 -0.582032 0
M  V30 6936 O 672.705 1.55828 -0.839449 0
M  V30 6937 C 669.834 2.86568 -1.89034 0
M  V30 6938 C 668.92 2.8991 -3.09537 0
M  V30 6939 N 669.311 2.62937 -4.32086 0
M  V30 6940 C 667.609 3.21078 -3.09556 0
M  V30 6941 C 668.31 2.73079 -5.13617 0
M  V30 6942 N 667.286 3.06342 -4.49061 0
M  V30 6943 H 671.088 1.26689 -2.65193 0
M  V30 6944 H 668.602 0.607902 -1.50593 0
M  V30 6945 H 670.599 3.64834 -2.01746 0
M  V30 6946 H 669.259 3.09604 -0.978547 0
M  V30 6947 H 670.27 2.37163 -4.60406 0
M  V30 6948 H 666.947 3.49651 -2.28146 0
M  V30 6949 H 668.337 2.55863 -6.21276 0
M  V30 6950 N 671.057 1.43213 0.657864 0
M  V30 6951 C 672.02 1.47687 1.75275 0
M  V30 6952 C 673.02 0.362179 1.56668 0
M  V30 6953 O 674.21 0.623734 1.62651 0
M  V30 6954 C 671.342 1.32497 3.14098 0
M  V30 6955 H 672.535 2.4519 1.7269 0
M  V30 6956 H 670.088 1.2991 0.869087 0
M  V30 6957 H 670.823 0.359831 3.22298 0
M  V30 6958 H 670.608 2.13299 3.29008 0
M  V30 6959 H 672.098 1.38549 3.93946 0
M  V30 6960 N 672.536 -0.895792 1.29666 0
M  V30 6961 C 673.784 -1.64339 1.17631 0
M  V30 6962 C 674.105 -1.93099 -0.271643 0
M  V30 6963 O 673.375 -1.55981 -1.18518 0
M  V30 6964 H 671.955 -0.609162 0.432354 0
M  V30 6965 H 674.617 -1.07389 1.62646 0
M  V30 6966 H 673.713 -2.59815 1.72924 0
M  V30 6967 N 674.014 -1.12206 -1.10668 0
M  V30 6968 C 674.924 -0.800686 -2.20513 0
M  V30 6969 C 675.94 0.209512 -1.72734 0
M  V30 6970 O 677.116 0.043705 -2.01353 0
M  V30 6971 C 674.181 -0.257353 -3.45744 0
M  V30 6972 C 673.242 -1.32718 -4.0827 0
M  V30 6973 C 672.475 -0.809674 -5.27522 0
M  V30 6974 O 672.698 0.35742 -5.69279 0
M  V30 6975 O 671.632 -1.57816 -5.80842 0
M  V30 6976 H 675.458 -1.71807 -2.50432 0
M  V30 6977 H 673.043 -0.898546 -1.19359 0
M  V30 6978 H 674.925 0.0408849 -4.2138 0
M  V30 6979 H 673.6 0.632627 -3.17458 0
M  V30 6980 H 672.507 -1.67855 -3.34329 0
M  V30 6981 H 673.84 -2.19083 -4.40753 0
M  V30 6982 N 675.492 1.28418 -0.913599 0
M  V30 6983 C 676.422 2.29713 -0.418847 0
M  V30 6984 C 677.403 1.62165 0.513469 0
M  V30 6985 O 678.588 1.89576 0.421235 0
M  V30 6986 C 675.718 3.45612 0.342042 0
M  V30 6987 C 674.672 4.25056 -0.501123 0
M  V30 6988 C 673.998 5.3329 0.388097 0
M  V30 6989 C 675.298 4.91814 -1.75831 0
M  V30 6990 H 676.992 2.71346 -1.26538 0
M  V30 6991 H 674.538 1.30446 -0.609903 0
M  V30 6992 H 676.491 4.15562 0.699 0
M  V30 6993 H 675.215 3.02858 1.22248 0
M  V30 6994 H 673.874 3.56833 -0.840598 0
M  V30 6995 H 673.522 4.8678 1.26707 0
M  V30 6996 H 673.222 5.87347 -0.172459 0
M  V30 6997 H 674.746 6.06088 0.74094 0
M  V30 6998 H 676.16 5.54126 -1.47026 0
M  V30 6999 H 674.557 5.55866 -2.26126 0
M  V30 7000 H 675.627 4.16313 -2.4862 0
M  V30 7001 N 676.97 0.677563 1.42291 0
M  V30 7002 C 678.218 0.200578 2.01102 0
M  V30 7003 C 678.539 -1.19803 1.53858 0
M  V30 7004 O 677.809 -1.80496 0.761439 0
M  V30 7005 H 676.389 0.0711634 0.743603 0
M  V30 7006 H 679.051 0.874691 1.7417 0
M  V30 7007 H 678.147 0.204 3.11433 0
M  V30 7008 N 678.448 -1.51871 0.421078 0
M  V30 7009 C 679.38 -2.25052 -0.434065 0
M  V30 7010 C 680.393 -1.28458 -1.00013 0
M  V30 7011 O 681.582 -1.54323 -0.897033 0
M  V30 7012 C 678.682 -2.97813 -1.61743 0
M  V30 7013 C 677.855 -4.21374 -1.17315 0
M  V30 7014 C 676.914 -4.76854 -2.22478 0
M  V30 7015 O 675.94 -5.39123 -1.82577 0
M  V30 7016 N 677.142 -4.59467 -3.54782 0
M  V30 7017 H 679.907 -2.99077 0.193073 0
M  V30 7018 H 677.468 -1.59972 0.249088 0
M  V30 7019 H 679.46 -3.3182 -2.31685 0
M  V30 7020 H 678.03 -2.26899 -2.15024 0
M  V30 7021 H 677.25 -3.93046 -0.3014 0
M  V30 7022 H 678.538 -5.01591 -0.853444 0
M  V30 7023 H 677.936 -4.09832 -3.89941 0
M  V30 7024 H 676.493 -4.9788 -4.20665 0
M  V30 7025 N 679.926 -0.151884 -1.56866 0
M  V30 7026 C 680.889 0.771861 -2.15812 0
M  V30 7027 C 681.889 1.17181 -1.10115 0
M  V30 7028 O 683.079 1.09194 -1.35729 0
M  V30 7029 C 680.211 2.04806 -2.7252 0
M  V30 7030 H 681.404 0.259021 -2.98779 0
M  V30 7031 H 678.957 0.097588 -1.55995 0
M  V30 7032 H 679.692 2.60445 -1.93233 0
M  V30 7033 H 679.477 1.77044 -3.49854 0
M  V30 7034 H 680.967 2.70771 -3.1792 0
M  V30 7035 N 681.404 1.57128 0.121893 0
M  V30 7036 C 682.65 1.84974 0.831418 0
M  V30 7037 C 682.983 0.737204 1.79663 0
M  V30 7038 O 682.258 -0.257199 1.92792 0
M  V30 7039 C 682.541 3.23397 1.58386 0
M  V30 7040 C 682.394 4.45246 0.638445 0
M  V30 7041 C 683.713 3.59355 2.54071 0
M  V30 7042 H 680.832 0.67282 0.300803 0
M  V30 7043 H 683.474 1.89759 0.0957587 0
M  V30 7044 H 681.624 3.19449 2.21098 0
M  V30 7045 H 683.296 4.61295 0.0203925 0
M  V30 7046 H 681.539 4.33771 -0.05023 0
M  V30 7047 H 682.21 5.38765 1.20151 0
M  V30 7048 H 684.686 3.64075 2.01465 0
M  V30 7049 H 683.562 4.57193 3.03752 0
M  V30 7050 H 683.823 2.86622 3.36601 0
M  V30 7051 N 682.882 -0.391992 1.52647 0
M  V30 7052 C 684.107 -1.16312 1.71716 0
M  V30 7053 C 684.532 -1.83042 0.433279 0
M  V30 7054 O 683.89 -1.70705 -0.610707 0
M  V30 7055 C 683.938 -2.18908 2.86551 0
M  V30 7056 O 683.042 -3.2543 2.53316 0
M  V30 7057 H 682.383 -0.338743 0.571095 0
M  V30 7058 H 684.913 -0.457202 1.99426 0
M  V30 7059 H 684.923 -2.62954 3.1196 0
M  V30 7060 H 683.598 -1.69726 3.79692 0
M  V30 7061 H 682.175 -2.86543 2.38637 0
M  V30 7062 N 684.36 -1.4356 -0.65026 0
M  V30 7063 C 685.27 -1.514 -1.79207 0
M  V30 7064 C 686.286 -0.400895 -1.69319 0
M  V30 7065 O 687.462 -0.655458 -1.90436 0
M  V30 7066 C 684.527 -1.43737 -3.155 0
M  V30 7067 C 683.588 -2.65743 -3.37163 0
M  V30 7068 C 682.821 -2.58436 -4.66954 0
M  V30 7069 O 683.044 -1.63374 -5.46503 0
M  V30 7070 O 681.978 -3.48984 -4.90402 0
M  V30 7071 H 685.804 -2.47825 -1.75547 0
M  V30 7072 H 683.389 -1.25594 -0.809111 0
M  V30 7073 H 685.271 -1.41916 -3.96784 0
M  V30 7074 H 683.946 -0.504488 -3.19745 0
M  V30 7075 H 682.853 -2.73136 -2.55632 0
M  V30 7076 H 684.186 -3.58014 -3.37768 0
M  V30 7077 N 685.838 0.888903 -1.30139 0
M  V30 7078 C 687.086 1.63713 -1.18501 0
M  V30 7079 C 687.407 1.9324 0.261399 0
M  V30 7080 O 686.677 1.56608 1.17689 0
M  V30 7081 H 685.257 0.606861 -0.435579 0
M  V30 7082 H 687.919 1.06525 -1.63213 0
M  V30 7083 H 687.015 2.58894 -1.743 0
M  V30 7084 N 687.317 1.12792 1.10072 0
M  V30 7085 C 688.733 0.864745 1.34143 0
M  V30 7086 C 688.933 -0.503201 1.95116 0
M  V30 7087 O 687.989 -1.25111 2.19325 0
M  V30 7088 C 689.302 1.98413 2.25949 0
M  V30 7089 C 690.85 2.01545 2.39476 0
M  V30 7090 C 691.325 3.12727 3.34613 0
M  V30 7091 N 692.816 3.12194 3.42183 0
M  V30 7092 C 693.551 3.94862 4.15779 0
M  V30 7093 N 693.047 4.87528 4.92228 0
M  V30 7094 N 694.84 3.82985 4.11435 0
M  V30 7095 H 686.991 2.00926 0.68866 0
M  V30 7096 H 689.254 0.874564 0.365844 0
M  V30 7097 H 688.96 2.97005 1.88364 0
M  V30 7098 H 688.834 1.89254 3.26287 0
M  V30 7099 H 691.221 1.0357 2.76328 0
M  V30 7100 H 691.302 2.14777 1.3894 0
M  V30 7101 H 690.946 4.10936 2.98486 0
M  V30 7102 H 690.876 2.96732 4.35037 0
M  V30 7103 H 693.367 2.45065 2.87666 0
M  V30 7104 H 693.68 5.47109 5.45794 0
M  V30 7105 H 692.025 4.91539 4.9134 0
M  V30 7106 H 695.216 3.09923 3.50807 0
M  V30 7107 H 695.389 4.47641 4.68531 0
M  V30 7108 N 688.795 -1.27931 0.920396 0
M  V30 7109 C 689.742 -2.27085 0.412422 0
M  V30 7110 C 690.712 -1.57858 -0.516725 0
M  V30 7111 O 691.897 -1.85717 -0.437475 0
M  V30 7112 C 689.037 -3.43466 -0.335399 0
M  V30 7113 C 688.15 -4.27425 0.627017 0
M  V30 7114 C 687.285 -5.31016 -0.139916 0
M  V30 7115 C 686.324 -6.06641 0.815683 0
M  V30 7116 N 685.461 -7.02052 0.0818439 0
M  V30 7117 H 690.301 -2.69913 1.26298 0
M  V30 7118 H 687.838 -1.32732 0.634076 0
M  V30 7119 H 689.796 -4.09744 -0.785226 0
M  V30 7120 H 688.426 -3.01611 -1.15025 0
M  V30 7121 H 687.478 -3.6113 1.19537 0
M  V30 7122 H 688.79 -4.79969 1.35763 0
M  V30 7123 H 687.944 -6.03208 -0.649998 0
M  V30 7124 H 686.683 -4.79257 -0.903543 0
M  V30 7125 H 685.688 -5.33294 1.33708 0
M  V30 7126 H 686.913 -6.60489 1.57897 0
M  V30 7127 H 684.859 -6.52634 -0.663671 0
M  V30 7128 H 684.776 -7.52249 0.752163 0
M  V30 7129 H 686.044 -7.78432 -0.407825 0
M  V30 7130 N 690.273 -0.685099 -1.4193 0
M  V30 7131 C 691.22 -0.0131869 -2.30796 0
M  V30 7132 C 692.19 0.782129 -1.46533 0
M  V30 7133 O 693.375 0.75229 -1.75343 0
M  V30 7134 C 690.515 0.924768 -3.32479 0
M  V30 7135 C 689.628 0.122181 -4.31827 0
M  V30 7136 C 688.763 1.05682 -5.20581 0
M  V30 7137 C 687.802 0.246526 -6.11603 0
M  V30 7138 N 686.939 1.13442 -6.92875 0
M  V30 7139 H 691.779 -0.776789 -2.87698 0
M  V30 7140 H 689.316 -0.394791 -1.41703 0
M  V30 7141 H 691.274 1.48251 -3.89971 0
M  V30 7142 H 689.904 1.65488 -2.77152 0
M  V30 7143 H 688.956 -0.552335 -3.76369 0
M  V30 7144 H 690.268 -0.506473 -4.96222 0
M  V30 7145 H 689.422 1.68415 -5.82856 0
M  V30 7146 H 688.161 1.71935 -4.56388 0
M  V30 7147 H 687.166 -0.393944 -5.48387 0
M  V30 7148 H 688.391 -0.412053 -6.77849 0
M  V30 7149 H 686.337 1.78316 -6.313 0
M  V30 7150 H 686.254 0.561089 -7.53915 0
M  V30 7151 H 687.522 1.74889 -7.59628 0
M  V30 7152 N 691.751 1.51645 -0.429126 0
M  V30 7153 C 692.661 2.31288 0.392809 0
M  V30 7154 C 693.677 1.39852 1.03525 0
M  V30 7155 O 694.853 1.72926 1.03241 0
M  V30 7156 C 691.918 3.13347 1.48372 0
M  V30 7157 C 690.979 4.20551 0.862268 0
M  V30 7158 C 690.212 4.98688 1.9012 0
M  V30 7159 O 690.435 4.77359 3.12225 0
M  V30 7160 O 689.369 5.83005 1.4963 0
M  V30 7161 H 693.195 3.02609 -0.257138 0
M  V30 7162 H 690.78 1.48163 -0.191851 0
M  V30 7163 H 692.662 3.64387 2.1166 0
M  V30 7164 H 691.337 2.44799 2.1179 0
M  V30 7165 H 690.244 3.73609 0.191568 0
M  V30 7166 H 691.577 4.91449 0.271704 0
M  V30 7167 N 693.229 0.160201 1.56784 0
M  V30 7168 C 694.476 -0.487588 1.96542 0
M  V30 7169 C 694.804 -1.63999 1.04569 0
M  V30 7170 O 694.059 -1.95546 0.0775211 0
M  V30 7171 C 694.358 -1.02259 3.42459 0
M  V30 7172 C 694.024 0.0127436 4.50898 0
M  V30 7173 C 692.686 0.297318 4.80281 0
M  V30 7174 C 695.038 0.716078 5.16257 0
M  V30 7175 C 692.366 1.29081 5.72324 0
M  V30 7176 C 694.718 1.69847 6.09372 0
M  V30 7177 C 693.382 1.99061 6.37127 0
M  V30 7178 H 692.652 -0.178421 0.719199 0
M  V30 7179 H 695.299 0.249818 1.89864 0
M  V30 7180 H 693.604 -1.8376 3.46034 0
M  V30 7181 H 695.301 -1.53261 3.70556 0
M  V30 7182 H 691.891 -0.219235 4.28039 0
M  V30 7183 H 696.075 0.509428 4.93679 0
M  V30 7184 H 691.331 1.52344 5.92116 0
M  V30 7185 H 695.505 2.2489 6.59088 0
M  V30 7186 H 693.132 2.76194 7.08252 0
M  V30 7187 N 694.707 -1.5719 -0.113559 0
M  V30 7188 C 695.955 -1.84772 -0.818761 0
M  V30 7189 C 696.276 -0.746196 -1.80158 0
M  V30 7190 O 695.546 0.229305 -1.94553 0
M  V30 7191 H 694.126 -0.681737 -0.305359 0
M  V30 7192 H 696.788 -1.94645 -0.0995845 0
M  V30 7193 H 695.884 -2.80878 -1.36067 0
M  V30 7194 N 696.185 0.383891 -1.52853 0
M  V30 7195 C 697.433 1.12619 -1.67814 0
M  V30 7196 C 697.754 1.90354 -0.423141 0
M  V30 7197 O 697.024 1.87649 0.562554 0
M  V30 7198 H 695.604 0.418738 -0.618601 0
M  V30 7199 H 698.266 0.43495 -1.89985 0
M  V30 7200 H 697.362 1.82624 -2.5309 0
M  V30 7201 N 697.663 1.43903 0.642637 0
M  V30 7202 C 698.91 1.46079 1.40239 0
M  V30 7203 C 699.238 0.0890335 1.94296 0
M  V30 7204 O 698.493 -0.907533 1.73385 0
M  V30 7205 C 698.792 2.45907 2.59354 0
M  V30 7206 C 698.458 3.91522 2.23654 0
M  V30 7207 C 697.12 4.31179 2.1363 0
M  V30 7208 C 699.472 4.83242 1.95261 0
M  V30 7209 C 696.8 5.60495 1.73384 0
M  V30 7210 C 699.152 6.12933 1.56511 0
M  V30 7211 C 697.816 6.51556 1.4502 0
M  V30 7212 H 697.086 0.534542 0.513172 0
M  V30 7213 H 699.733 1.77047 0.72984 0
M  V30 7214 H 698.038 2.08381 3.3179 0
M  V30 7215 H 699.735 2.44842 3.17574 0
M  V30 7216 H 696.325 3.60142 2.32369 0
M  V30 7217 H 700.509 4.53367 2.0192 0
M  V30 7218 H 695.765 5.89249 1.63082 0
M  V30 7219 H 699.939 6.83469 1.33576 0
M  V30 7220 H 697.566 7.51663 1.13606 0
M  V30 7221 N 699.141 -0.881989 1.30609 0
M  V30 7222 C 700.366 -1.67236 1.22665 0
M  V30 7223 C 700.791 -1.8696 -0.206777 0
M  V30 7224 O 700.149 -1.4027 -1.14865 0
M  V30 7225 C 700.197 -3.02446 1.96363 0
M  V30 7226 O 699.301 -3.91614 1.29276 0
M  V30 7227 H 698.642 -0.510902 0.424117 0
M  V30 7228 H 701.172 -1.10055 1.72479 0
M  V30 7229 H 701.182 -3.52468 2.055 0
M  V30 7230 H 699.857 -2.8741 3.00613 0
M  V30 7231 H 698.434 -3.50055 1.28514 0
M  V30 7232 N 700.619 -1.13374 -1.09472 0
M  V30 7233 C 701.867 -0.893422 -1.8128 0
M  V30 7234 C 702.188 0.582029 -1.86111 0
M  V30 7235 O 701.458 1.42305 -1.34633 0
M  V30 7236 H 700.038 -0.327543 -0.67136 0
M  V30 7237 H 702.7 -1.43018 -1.32408 0
M  V30 7238 H 701.796 -1.28374 -2.84476 0
M  V30 7239 N 702.098 1.27442 -0.927168 0
M  V30 7240 C 703.345 1.94391 -0.567324 0
M  V30 7241 C 703.673 1.72875 0.891321 0
M  V30 7242 O 702.928 1.05071 1.65102 0
M  V30 7243 C 703.227 3.47413 -0.838994 0
M  V30 7244 C 702.893 3.89049 -2.2793 0
M  V30 7245 C 701.555 4.00127 -2.67305 0
M  V30 7246 C 703.907 4.10154 -3.21595 0
M  V30 7247 C 701.235 4.29697 -3.99471 0
M  V30 7248 C 703.587 4.41208 -4.53341 0
M  V30 7249 C 702.251 4.50499 -4.92551 0
M  V30 7250 H 701.521 0.711325 -0.207598 0
M  V30 7251 H 704.168 1.51523 -1.17103 0
M  V30 7252 H 702.473 3.91503 -0.152609 0
M  V30 7253 H 704.17 3.97354 -0.53955 0
M  V30 7254 H 700.76 3.80962 -1.96381 0
M  V30 7255 H 704.944 4.01036 -2.92377 0
M  V30 7256 H 700.2 4.35099 -4.29533 0
M  V30 7257 H 704.374 4.56486 -5.25922 0
M  V30 7258 H 702.001 4.73167 -5.94994 0
M  V30 7259 N 703.576 0.692616 1.41565 0
M  V30 7260 C 704.801 0.229776 2.06123 0
M  V30 7261 C 705.226 -1.11119 1.5177 0
M  V30 7262 O 704.584 -1.69498 0.643444 0
M  V30 7263 C 704.632 0.19469 3.60074 0
M  V30 7264 O 703.736 -0.831366 4.03933 0
M  V30 7265 H 703.077 0.113002 0.654314 0
M  V30 7266 H 705.607 0.946645 1.81383 0
M  V30 7267 H 705.617 0.0245487 4.07993 0
M  V30 7268 H 704.292 1.17339 3.99004 0
M  V30 7269 H 702.869 -0.630819 3.67526 0
M  V30 7270 N 705.054 -1.51416 0.437162 0
M  V30 7271 C 706.302 -2.01687 -0.129108 0
M  V30 7272 C 706.623 -1.32329 -1.43227 0
M  V30 7273 O 705.893 -0.457796 -1.90476 0
M  V30 7274 H 704.473 -0.745277 -0.0507023 0
M  V30 7275 H 707.135 -1.86075 0.579828 0
M  V30 7276 H 706.231 -3.10605 -0.305141 0
M  V30 7277 N 706.532 -0.168513 -1.56696 0
M  V30 7278 C 707.442 0.775435 -2.21414 0
M  V30 7279 C 708.458 1.25529 -1.20492 0
M  V30 7280 O 709.634 1.30801 -1.53144 0
M  V30 7281 C 706.699 1.9886 -2.83999 0
M  V30 7282 C 705.76 1.5559 -4.00113 0
M  V30 7283 C 704.993 2.71124 -4.59704 0
M  V30 7284 O 705.216 3.87917 -4.18182 0
M  V30 7285 O 704.15 2.4536 -5.4962 0
M  V30 7286 H 707.976 0.254416 -3.02632 0
M  V30 7287 H 705.561 0.0595507 -1.49281 0
M  V30 7288 H 707.443 2.69816 -3.23693 0
M  V30 7289 H 706.118 2.49874 -2.05779 0
M  V30 7290 H 705.025 0.815924 -3.65094 0
M  V30 7291 H 706.358 1.09271 -4.79917 0
M  V30 7292 N 708.01 1.57248 0.105221 0
M  V30 7293 C 709.287 1.76566 0.841647 0
M  V30 7294 C 709.667 0.747566 1.9742 0
M  V30 7295 O 709.015 -0.225886 2.27381 0
M  V30 7296 C 709.225 3.22016 1.3456 0
M  V30 7297 C 710.573 3.84911 1.79244 0
M  V30 7298 O 711.597 3.25703 1.44207 0
M  V30 7299 O 710.456 4.89008 2.43995 0
M  V30 7300 H 707.55 0.723443 0.400698 0
M  V30 7301 H 710.096 1.69472 0.0878893 0
M  V30 7302 H 708.868 3.87644 0.533685 0
M  V30 7303 H 708.491 3.33703 2.16167 0
M  V30 7304 N 709.488 -0.375779 1.53054 0
M  V30 7305 C 710.734 -1.12114 1.68992 0
M  V30 7306 C 711.067 -1.8926 0.435238 0
M  V30 7307 O 710.342 -1.86044 -0.567278 0
M  V30 7308 C 710.625 -2.08867 2.93337 0
M  V30 7309 C 710.478 -1.35397 4.28938 0
M  V30 7310 C 711.797 -3.09124 3.13257 0
M  V30 7311 H 708.916 -0.406207 0.614951 0
M  V30 7312 H 711.558 -0.403054 1.85676 0
M  V30 7313 H 709.708 -2.70102 2.79244 0
M  V30 7314 H 711.38 -0.770242 4.54824 0
M  V30 7315 H 709.623 -0.655801 4.28814 0
M  V30 7316 H 710.294 -2.06161 5.12056 0
M  V30 7317 H 712.77 -2.57987 3.26469 0
M  V30 7318 H 711.646 -3.74054 4.01715 0
M  V30 7319 H 711.907 -3.78729 2.28072 0
M  V30 7320 N 710.966 -1.44241 -0.634997 0
M  V30 7321 C 712.377 -1.41622 -1.21655 0
M  V30 7322 C 712.728 -0.129584 -1.95772 0
M  V30 7323 O 711.853 0.770225 -2.02229 0
M  V30 7324 C 712.448 -2.56557 -2.21278 0
M  V30 7325 C 711.007 -2.57145 -2.7487 0
M  V30 7326 C 710.154 -2.33354 -1.49804 0
M  V30 7327 H 713.105 -1.52878 -0.425905 0
M  V30 7328 H 713.126 -2.29089 -3.03807 0
M  V30 7329 H 712.638 -3.50186 -1.67306 0
M  V30 7330 H 710.739 -1.67447 -3.32855 0
M  V30 7331 H 710.852 -3.55507 -3.21172 0
M  V30 7332 H 709.216 -1.82372 -1.77799 0
M  V30 7333 H 709.999 -3.29092 -0.977402 0
M  V30 7334 N 712.444 0.87505 -1.31075 0
M  V30 7335 C 713.721 1.60976 -1.11113 0
M  V30 7336 C 714.101 2.08409 0.336006 0
M  V30 7337 O 713.449 1.85858 1.32924 0
M  V30 7338 C 713.659 2.77166 -2.12085 0
M  V30 7339 C 715.007 3.47254 -2.44335 0
M  V30 7340 O 716.031 2.87367 -2.10472 0
M  V30 7341 O 714.89 4.55276 -3.02301 0
M  V30 7342 H 711.984 0.707982 -0.427424 0
M  V30 7343 H 714.53 0.920957 -1.42536 0
M  V30 7344 H 713.302 2.39494 -3.09449 0
M  V30 7345 H 712.925 3.53737 -1.81538 0
M  V30 7346 N 713.922 1.13953 1.08869 0
M  V30 7347 C 715.333 0.916649 1.62648 0
M  V30 7348 C 715.684 -0.545589 1.88462 0
M  V30 7349 O 714.809 -1.41351 1.63856 0
M  V30 7350 C 715.404 1.65751 2.95486 0
M  V30 7351 C 713.963 1.48034 3.46068 0
M  V30 7352 C 713.11 1.68305 2.20383 0
M  V30 7353 H 716.061 1.292 0.921572 0
M  V30 7354 H 716.082 1.11794 3.63707 0
M  V30 7355 H 715.594 2.72171 2.76667 0
M  V30 7356 H 713.695 0.439416 3.7 0
M  V30 7357 H 713.808 2.24719 4.23129 0
M  V30 7358 H 712.172 1.10833 2.29321 0
M  V30 7359 H 712.955 2.76057 2.04077 0
M  V30 7360 N 715.4 -1.26948 0.933913 0
M  V30 7361 C 716.332 -2.25768 0.395137 0
M  V30 7362 C 717.345 -1.55637 -0.477585 0
M  V30 7363 O 718.534 -1.76142 -0.289204 0
M  V30 7364 C 715.634 -3.35874 -0.451882 0
M  V30 7365 C 714.807 -4.3554 0.40299 0
M  V30 7366 C 713.866 -5.24809 -0.3824 0
M  V30 7367 O 712.892 -5.68805 0.212057 0
M  V30 7368 N 714.094 -5.55636 -1.68072 0
M  V30 7369 H 716.859 -2.72634 1.24463 0
M  V30 7370 H 714.42 -1.40639 0.802008 0
M  V30 7371 H 716.412 -3.92542 -0.984516 0
M  V30 7372 H 714.982 -2.8856 -1.20215 0
M  V30 7373 H 714.202 -3.78047 1.11688 0
M  V30 7374 H 715.49 -4.99131 0.987201 0
M  V30 7375 H 714.888 -5.2176 -2.18592 0
M  V30 7376 H 713.445 -6.14978 -2.15975 0
M  V30 7377 N 716.879 -0.700114 -1.41195 0
M  V30 7378 C 717.842 -0.0465706 -2.29153 0
M  V30 7379 C 718.842 0.703302 -1.44604 0
M  V30 7380 O 720.032 0.537513 -1.657 0
M  V30 7381 C 717.164 0.944324 -3.2756 0
M  V30 7382 H 718.357 -0.821064 -2.88442 0
M  V30 7383 H 715.91 -0.463869 -1.49258 0
M  V30 7384 H 716.645 1.74642 -2.73259 0
M  V30 7385 H 716.43 0.409701 -3.89954 0
M  V30 7386 H 717.92 1.39925 -3.9346 0
M  V30 7387 N 718.357 1.51182 -0.445186 0
M  V30 7388 C 719.267 2.31692 0.368255 0
M  V30 7389 C 720.283 1.40942 1.02036 0
M  V30 7390 O 721.459 1.74011 1.01401 0
M  V30 7391 C 718.524 3.14903 1.45041 0
M  V30 7392 C 717.585 4.21442 0.817615 0
M  V30 7393 C 716.818 5.00677 1.8482 0
M  V30 7394 O 717.041 4.80644 3.07145 0
M  V30 7395 O 715.975 5.84559 1.43438 0
M  V30 7396 H 719.801 3.0232 -0.289219 0
M  V30 7397 H 717.386 1.47951 -0.207555 0
M  V30 7398 H 719.268 3.66612 2.07783 0
M  V30 7399 H 717.943 2.47031 2.09182 0
M  V30 7400 H 716.85 3.73791 0.151931 0
M  V30 7401 H 718.183 4.9171 0.219564 0
M  V30 7402 N 719.835 0.176821 1.56605 0
M  V30 7403 C 720.767 -0.782836 2.15417 0
M  V30 7404 C 721.78 -1.18982 1.11117 0
M  V30 7405 O 722.969 -1.12872 1.38283 0
M  V30 7406 C 720.069 -2.06596 2.68647 0
M  V30 7407 C 719.242 -1.82167 3.9766 0
M  V30 7408 C 718.301 -2.94751 4.35899 0
M  V30 7409 O 717.327 -2.65148 5.03672 0
M  V30 7410 N 718.529 -4.2267 3.97907 0
M  V30 7411 H 721.294 -0.280012 2.98389 0
M  V30 7412 H 718.855 -0.00577529 1.61899 0
M  V30 7413 H 720.847 -2.81018 2.91223 0
M  V30 7414 H 719.417 -2.48054 1.90232 0
M  V30 7415 H 718.637 -0.916208 3.83405 0
M  V30 7416 H 719.925 -1.6322 4.81909 0
M  V30 7417 H 719.323 -4.4958 3.43357 0
M  V30 7418 H 717.88 -4.93778 4.25472 0
M  V30 7419 N 721.313 -1.57302 -0.09688 0
M  V30 7420 C 722.541 -1.90202 -0.814295 0
M  V30 7421 C 722.956 -0.770344 -1.72369 0
M  V30 7422 O 722.313 0.257764 -1.8067 0
M  V30 7423 C 722.364 -3.22708 -1.62916 0
M  V30 7424 O 722.085 -4.31522 -0.756343 0
M  V30 7425 C 723.586 -3.69459 -2.44979 0
M  V30 7426 H 720.806 -0.629275 -0.232925 0
M  V30 7427 H 723.35 -2.04364 -0.0746482 0
M  V30 7428 H 721.505 -3.1015 -2.32133 0
M  V30 7429 H 721.919 -5.07604 -1.32054 0
M  V30 7430 H 723.393 -4.64875 -2.9765 0
M  V30 7431 H 723.87 -2.97211 -3.23361 0
M  V30 7432 H 724.476 -3.84879 -1.80964 0
M  V30 7433 N 722.791 0.367657 -1.53252 0
M  V30 7434 C 724.038 1.11052 -1.69333 0
M  V30 7435 C 724.366 1.89363 -0.444064 0
M  V30 7436 O 723.621 1.87094 0.573953 0
M  V30 7437 C 723.92 2.09825 -2.89324 0
M  V30 7438 C 723.586 1.4801 -4.25915 0
M  V30 7439 C 722.248 1.30879 -4.6306 0
M  V30 7440 C 724.6 1.03268 -5.10867 0
M  V30 7441 C 721.928 0.675868 -5.82794 0
M  V30 7442 C 724.28 0.41377 -6.31245 0
M  V30 7443 C 722.944 0.229939 -6.67104 0
M  V30 7444 H 722.214 0.406367 -0.619634 0
M  V30 7445 H 724.861 0.392558 -1.87433 0
M  V30 7446 H 723.166 2.87917 -2.65728 0
M  V30 7447 H 724.863 2.67252 -2.98961 0
M  V30 7448 H 721.453 1.62336 -3.96667 0
M  V30 7449 H 725.637 1.15297 -4.82722 0
M  V30 7450 H 720.893 0.521833 -6.09169 0
M  V30 7451 H 725.067 0.0588768 -6.96375 0
M  V30 7452 H 722.694 -0.262562 -7.59746 0
M  V30 7453 N 724.269 1.44576 0.627338 0
M  V30 7454 C 725.199 1.54562 1.75022 0
M  V30 7455 C 726.18 0.398378 1.65369 0
M  V30 7456 O 727.365 0.61899 1.84071 0
M  V30 7457 C 724.495 1.49309 3.13567 0
M  V30 7458 C 723.449 2.62549 3.38012 0
M  V30 7459 C 722.775 2.42348 4.76625 0
M  V30 7460 C 724.075 4.04678 3.30202 0
M  V30 7461 H 725.769 2.4855 1.66922 0
M  V30 7462 H 723.315 1.19624 0.801636 0
M  V30 7463 H 725.268 1.54895 3.919 0
M  V30 7464 H 723.992 0.518392 3.2246 0
M  V30 7465 H 722.651 2.56358 2.62061 0
M  V30 7466 H 722.299 1.43062 4.82226 0
M  V30 7467 H 721.999 3.18273 4.93939 0
M  V30 7468 H 723.523 2.49758 5.57183 0
M  V30 7469 H 724.937 4.12217 3.98435 0
M  V30 7470 H 723.334 4.80836 3.5905 0
M  V30 7471 H 724.404 4.2798 2.27949 0
M  V30 7472 N 725.747 -0.868086 1.31537 0
M  V30 7473 C 726.695 -1.99688 1.1928 0
M  V30 7474 C 727.689 -1.69101 0.100656 0
M  V30 7475 O 728.895 -1.78073 0.262677 0
M  V30 7476 H 725.27 -0.655032 0.369374 0
M  V30 7477 H 727.241 -2.07157 2.14776 0
M  V30 7478 C 725.99 -3.35338 0.918892 0
M  V30 7479 H 725.313 -3.59396 1.75142 0
M  V30 7480 H 726.753 -4.14909 0.873311 0
M  V30 7481 C 725.212 -3.34769 -0.378366 0
M  V30 7482 O 725.742 -3.76716 -1.39456 0
M  V30 7483 N 723.948 -2.87895 -0.39557 0
M  V30 7484 H 723.495 -2.53954 0.431889 0
M  V30 7485 H 723.453 -2.87897 -1.26344 0
M  V30 7486 N 727.225 -1.14528 -1.08264 0
M  V30 7487 C 728.45 -0.938381 -1.84957 0
M  V30 7488 C 728.875 0.508044 -1.81109 0
M  V30 7489 O 728.233 1.36146 -1.19724 0
M  V30 7490 C 728.281 -1.44568 -3.30352 0
M  V30 7491 O 727.385 -0.638745 -4.07423 0
M  V30 7492 H 726.726 -0.335394 -0.573068 0
M  V30 7493 H 729.256 -1.52287 -1.36637 0
M  V30 7494 H 729.266 -1.45449 -3.81194 0
M  V30 7495 H 727.941 -2.49876 -3.32468 0
M  V30 7496 H 726.518 -0.698801 -3.66294 0
M  V30 7497 N 728.703 1.26451 -0.940633 0
M  V30 7498 C 729.65 2.264 -0.448497 0
M  V30 7499 C 730.62 1.5866 0.491546 0
M  V30 7500 O 731.805 1.86389 0.407874 0
M  V30 7501 C 728.945 3.43956 0.280715 0
M  V30 7502 C 728.058 4.26374 -0.694937 0
M  V30 7503 C 727.193 5.31171 0.0554186 0
M  V30 7504 C 726.232 6.05266 -0.912091 0
M  V30 7505 N 725.369 7.01833 -0.193524 0
M  V30 7506 H 730.209 2.67869 -1.30576 0
M  V30 7507 H 727.746 1.31707 -0.655112 0
M  V30 7508 H 729.704 4.10941 0.71994 0
M  V30 7509 H 728.334 3.03403 1.10212 0
M  V30 7510 H 727.386 3.59183 -1.25267 0
M  V30 7511 H 728.698 4.77748 -1.43382 0
M  V30 7512 H 727.852 6.04166 0.553951 0
M  V30 7513 H 726.591 4.80634 0.827183 0
M  V30 7514 H 725.596 5.31099 -1.42175 0
M  V30 7515 H 726.821 6.57893 -1.68385 0
M  V30 7516 H 724.767 6.53607 0.559758 0
M  V30 7517 H 724.684 7.50957 -0.871744 0
M  V30 7518 H 725.952 7.78983 0.283932 0
M  V30 7519 N 730.181 0.707592 1.40822 0
M  V30 7520 C 731.111 0.0644925 2.33411 0
M  V30 7521 C 732.092 -0.754205 1.52466 0
M  V30 7522 O 733.277 -0.704749 1.80961 0
M  V30 7523 C 730.407 -0.863865 3.36385 0
M  V30 7524 C 729.361 -0.15138 4.27732 0
M  V30 7525 C 728.687 -1.19491 5.21177 0
M  V30 7526 C 729.987 0.989607 5.12839 0
M  V30 7527 H 731.681 0.837829 2.87438 0
M  V30 7528 H 729.227 0.404346 1.38207 0
M  V30 7529 H 731.18 -1.32309 4.0009 0
M  V30 7530 H 729.904 -1.66901 2.80734 0
M  V30 7531 H 728.563 0.287937 3.65467 0
M  V30 7532 H 728.211 -1.9929 4.61836 0
M  V30 7533 H 727.911 -0.723123 5.83134 0
M  V30 7534 H 729.435 -1.6544 5.8776 0
M  V30 7535 H 730.849 0.610114 5.70044 0
M  V30 7536 H 729.246 1.38926 5.83798 0
M  V30 7537 H 730.316 1.82389 4.49291 0
M  V30 7538 N 731.66 -1.50943 0.453197 0
M  V30 7539 C 732.608 -2.29728 -0.364419 0
M  V30 7540 C 733.602 -1.36246 -1.00664 0
M  V30 7541 O 734.808 -1.53518 -0.939794 0
M  V30 7542 H 731.183 -0.739536 -0.136347 0
M  V30 7543 H 733.154 -2.96672 0.320696 0
M  V30 7544 C 731.903 -3.1629 -1.44415 0
M  V30 7545 H 731.226 -3.88119 -0.959343 0
M  V30 7546 H 732.666 -3.74444 -1.98917 0
M  V30 7547 C 731.125 -2.32702 -2.43622 0
M  V30 7548 O 731.655 -1.99763 -3.48508 0
M  V30 7549 N 729.861 -1.95621 -2.14897 0
M  V30 7550 H 729.408 -2.22607 -1.29629 0
M  V30 7551 H 729.366 -1.39993 -2.81513 0
M  V30 7552 N 733.138 -0.185124 -1.56509 0
M  V30 7553 C 734.384 0.450356 -1.98352 0
M  V30 7554 C 734.739 1.59923 -1.06969 0
M  V30 7555 O 734.032 1.91272 -0.112084 0
M  V30 7556 C 734.226 0.967977 -3.44042 0
M  V30 7557 C 734.055 -0.129208 -4.49514 0
M  V30 7558 C 732.825 -0.58351 -5.0192 0
M  V30 7559 C 735.023 -0.93459 -5.05737 0
M  V30 7560 N 733.005 -1.65956 -5.91043 0
M  V30 7561 C 734.376 -1.86026 -5.91434 0
M  V30 7562 C 736.431 -0.978125 -4.88198 0
M  V30 7563 C 735.134 -2.82582 -6.61468 0
M  V30 7564 C 737.16 -1.93169 -5.58963 0
M  V30 7565 C 736.522 -2.84481 -6.44399 0
M  V30 7566 H 732.621 0.132504 -0.770692 0
M  V30 7567 H 735.205 -0.288523 -1.9255 0
M  V30 7568 H 733.376 1.67633 -3.50362 0
M  V30 7569 H 735.108 1.57323 -3.72869 0
M  V30 7570 H 731.863 -0.178676 -4.73263 0
M  V30 7571 H 732.287 -2.19848 -6.40309 0
M  V30 7572 H 736.929 -0.286169 -4.2183 0
M  V30 7573 H 734.647 -3.52758 -7.2704 0
M  V30 7574 H 738.233 -1.97166 -5.47373 0
M  V30 7575 H 737.113 -3.57065 -6.98194 0
M  V30 7576 N 734.616 1.57351 0.0885366 0
M  V30 7577 C 735.579 2.01557 1.09121 0
M  V30 7578 C 736.579 0.910052 1.3257 0
M  V30 7579 O 737.769 1.17537 1.28572 0
M  V30 7580 C 734.901 2.38189 2.43883 0
M  V30 7581 H 736.094 2.91361 0.710562 0
M  V30 7582 H 733.647 1.52694 0.333779 0
M  V30 7583 H 734.382 1.5136 2.86811 0
M  V30 7584 H 734.167 3.18846 2.28209 0
M  V30 7585 H 735.657 2.73025 3.15986 0
M  V30 7586 N 736.094 -0.359525 1.53444 0
M  V30 7587 C 737.004 -1.46445 1.83278 0
M  V30 7588 C 738.02 -1.5833 0.721629 0
M  V30 7589 O 739.196 -1.7411 1.01231 0
M  V30 7590 C 736.261 -2.81638 2.02191 0
M  V30 7591 C 735.322 -2.7923 3.26082 0
M  V30 7592 C 734.555 -4.07974 3.44082 0
M  V30 7593 O 734.778 -5.04447 2.66251 0
M  V30 7594 O 733.712 -4.13417 4.37458 0
M  V30 7595 H 737.538 -1.24156 2.77162 0
M  V30 7596 H 735.123 -0.550201 1.389 0
M  V30 7597 H 737.005 -3.61732 2.16167 0
M  V30 7598 H 735.68 -3.03892 1.11496 0
M  V30 7599 H 734.587 -1.97813 3.17523 0
M  V30 7600 H 735.92 -2.6193 4.16718 0
M  V30 7601 N 737.572 -1.44907 -0.619662 0
M  V30 7602 C 738.988 -1.29046 -0.939107 0
M  V30 7603 C 739.188 -0.23462 -2.00129 0
M  V30 7604 O 738.244 0.37558 -2.49691 0
M  V30 7605 C 739.557 -2.66567 -1.39149 0
M  V30 7606 C 741.105 -2.74368 -1.50635 0
M  V30 7607 C 741.58 -4.12386 -1.99253 0
M  V30 7608 N 743.071 -4.1462 -2.06506 0
M  V30 7609 C 743.806 -5.18272 -2.4532 0
M  V30 7610 N 743.302 -6.32278 -2.83189 0
M  V30 7611 N 745.095 -5.05628 -2.45554 0
M  V30 7612 H 737.246 -2.12239 0.0826135 0
M  V30 7613 H 739.509 -0.947652 -0.0256829 0
M  V30 7614 H 739.215 -3.4496 -0.685254 0
M  V30 7615 H 739.089 -2.94224 -2.36034 0
M  V30 7616 H 741.476 -1.96287 -2.20353 0
M  V30 7617 H 741.557 -2.50439 -0.520963 0
M  V30 7618 H 741.201 -4.90947 -1.30127 0
M  V30 7619 H 741.131 -4.33699 -2.98684 0
M  V30 7620 H 743.622 -3.32343 -1.79878 0
M  V30 7621 H 743.935 -7.07172 -3.11652 0
M  V30 7622 H 742.28 -6.35699 -2.80913 0
M  V30 7623 H 745.471 -4.15613 -2.15367 0
M  V30 7624 H 745.644 -5.86529 -2.75478 0
M  V30 7625 N 739.05 0.861098 -1.31996 0
M  V30 7626 C 739.96 2.00154 -1.22374 0
M  V30 7627 C 740.976 1.73447 -0.138631 0
M  V30 7628 O 742.152 1.98191 -0.358104 0
M  V30 7629 C 739.217 3.33696 -0.940645 0
M  V30 7630 C 738.278 3.73668 -2.11355 0
M  V30 7631 C 737.511 5.00837 -1.84386 0
M  V30 7632 O 737.734 5.64996 -0.783287 0
M  V30 7633 O 736.668 5.37787 -2.70313 0
M  V30 7634 H 740.494 2.11207 -2.18233 0
M  V30 7635 H 738.079 0.990768 -1.11822 0
M  V30 7636 H 739.961 4.13756 -0.798987 0
M  V30 7637 H 738.636 3.23698 -0.0121636 0
M  V30 7638 H 737.543 2.94211 -2.31065 0
M  V30 7639 H 738.876 3.88303 -3.02459 0
M  V30 7640 N 740.528 1.15101 1.07655 0
M  V30 7641 C 741.776 0.922149 1.79836 0
M  V30 7642 C 742.097 -0.552346 1.87014 0
M  V30 7643 O 741.367 -1.40145 1.3688 0
M  V30 7644 H 739.947 0.338182 0.666064 0
M  V30 7645 H 742.609 1.45107 1.30115 0
M  V30 7646 H 741.705 1.32883 2.82398 0
M  V30 7647 N 742.006 -1.2595 0.947325 0
M  V30 7648 C 743.254 -1.93081 0.596996 0
M  V30 7649 C 743.575 -1.74632 -0.867672 0
M  V30 7650 O 742.845 -1.1056 -1.6172 0
M  V30 7651 H 741.425 -0.714542 0.217805 0
M  V30 7652 H 744.087 -1.53265 1.20398 0
M  V30 7653 H 743.183 -3.01134 0.82004 0
M  V30 7654 N 743.484 -0.715051 -1.40445 0
M  V30 7655 C 744.394 -0.0631624 -2.34515 0
M  V30 7656 C 745.41 0.744397 -1.57273 0
M  V30 7657 O 746.586 0.677475 -1.89663 0
M  V30 7658 C 743.651 0.847915 -3.36172 0
M  V30 7659 C 742.712 0.0303655 -4.29289 0
M  V30 7660 C 741.945 0.898051 -5.2609 0
M  V30 7661 O 742.168 2.13729 -5.28844 0
M  V30 7662 O 741.102 0.337328 -6.00954 0
M  V30 7663 H 744.928 -0.839078 -2.91879 0
M  V30 7664 H 742.513 -0.475527 -1.4163 0
M  V30 7665 H 744.395 1.3698 -3.98515 0
M  V30 7666 H 743.07 1.60299 -2.81222 0
M  V30 7667 H 741.977 -0.536573 -3.70232 0
M  V30 7668 H 743.31 -0.686474 -4.87389 0
M  V30 7669 N 744.962 1.50701 -0.461195 0
M  V30 7670 C 745.912 2.25195 0.35653 0
M  V30 7671 C 746.896 1.2838 0.96992 0
M  V30 7672 O 748.088 1.53338 0.884108 0
M  V30 7673 C 745.217 3.11471 1.44364 0
M  V30 7674 C 744.303 4.15729 0.83847 0
M  V30 7675 N 744.694 5.05788 -0.0353198 0
M  V30 7676 C 742.992 4.32133 1.1035 0
M  V30 7677 C 743.693 5.80472 -0.37774 0
M  V30 7678 N 742.669 5.43049 0.24463 0
M  V30 7679 H 746.471 2.92188 -0.316746 0
M  V30 7680 H 743.985 1.60059 -0.274725 0
M  V30 7681 H 745.982 3.63436 2.04255 0
M  V30 7682 H 744.642 2.46025 2.11901 0
M  V30 7683 H 745.653 5.16326 -0.403465 0
M  V30 7684 H 742.33 3.77908 1.77458 0
M  V30 7685 H 743.72 6.62996 -1.09024 0
M  V30 7686 N 746.441 0.193421 1.56409 0
M  V30 7687 C 747.404 -0.714371 2.17783 0
M  V30 7688 C 748.404 -1.1422 1.13183 0
M  V30 7689 O 749.594 -1.05557 1.38576 0
M  V30 7690 C 746.726 -1.97509 2.77855 0
M  V30 7691 H 747.919 -0.179714 2.99361 0
M  V30 7692 H 745.472 -0.0561944 1.56199 0
M  V30 7693 H 746.207 -2.5523 2.0007 0
M  V30 7694 H 745.992 -1.67706 3.54425 0
M  V30 7695 H 747.482 -2.62246 3.24987 0
M  V30 7696 N 747.919 -1.57396 -0.0801906 0
M  V30 7697 C 749.335 -1.53564 -0.434778 0
M  V30 7698 C 749.535 -0.912372 -1.79661 0
M  V30 7699 O 748.591 -0.511268 -2.4727 0
M  V30 7700 C 749.904 -2.98244 -0.383561 0
M  V30 7701 C 751.452 -3.09536 -0.46435 0
M  V30 7702 C 751.927 -4.55851 -0.443128 0
M  V30 7703 N 753.418 -4.60456 -0.503448 0
M  V30 7704 C 754.153 -5.71135 -0.509106 0
M  V30 7705 N 753.649 -6.91203 -0.47008 0
M  V30 7706 N 755.442 -5.59353 -0.555035 0
M  V30 7707 H 747.593 -1.96281 0.811635 0
M  V30 7708 H 749.856 -0.898041 0.303689 0
M  V30 7709 H 749.562 -3.47369 0.550236 0
M  V30 7710 H 749.436 -3.57705 -1.19694 0
M  V30 7711 H 751.823 -2.6039 -1.38857 0
M  V30 7712 H 751.904 -2.53 0.377445 0
M  V30 7713 H 751.548 -5.05653 0.477207 0
M  V30 7714 H 751.478 -5.10242 -1.30234 0
M  V30 7715 H 753.969 -3.74048 -0.538199 0
M  V30 7716 H 754.282 -7.7132 -0.478091 0
M  V30 7717 H 752.627 -6.93625 -0.436897 0
M  V30 7718 H 755.818 -4.64453 -0.583158 0
M  V30 7719 H 755.991 -6.4561 -0.555976 0
M  V30 7720 N 749.397 0.351382 -1.53633 0
M  V30 7721 C 750.625 1.11275 -1.74429 0
M  V30 7722 C 751.04 1.82602 -0.479798 0
M  V30 7723 O 750.397 1.74074 0.548125 0
M  V30 7724 C 750.448 2.13223 -2.91921 0
M  V30 7725 O 750.169 1.44798 -4.13479 0
M  V30 7726 C 751.67 3.01797 -3.24706 0
M  V30 7727 H 748.89 0.332153 -0.583023 0
M  V30 7728 H 751.434 0.405974 -2.0043 0
M  V30 7729 H 749.589 2.79477 -2.68274 0
M  V30 7730 H 750.003 2.12839 -4.79374 0
M  V30 7731 H 751.477 3.69282 -4.10286 0
M  V30 7732 H 751.954 3.67387 -2.40673 0
M  V30 7733 H 752.56 2.41141 -3.5033 0
M  V30 7734 N 750.875 1.45233 0.611969 0
M  V30 7735 C 751.805 1.5641 1.73373 0
M  V30 7736 C 752.786 0.415896 1.64937 0
M  V30 7737 O 753.971 0.638478 1.83404 0
M  V30 7738 C 751.101 1.52627 3.11965 0
M  V30 7739 C 750.055 2.66119 3.35208 0
M  V30 7740 C 749.381 2.4739 4.74028 0
M  V30 7741 C 750.681 4.08157 3.25891 0
M  V30 7742 H 752.375 2.50307 1.64277 0
M  V30 7743 H 749.921 1.20467 0.788904 0
M  V30 7744 H 751.874 1.59043 3.90235 0
M  V30 7745 H 750.598 0.552564 3.21892 0
M  V30 7746 H 749.257 2.59123 2.59327 0
M  V30 7747 H 748.905 1.48168 4.80682 0
M  V30 7748 H 748.605 3.23494 4.90536 0
M  V30 7749 H 750.129 2.55653 5.54503 0
M  V30 7750 H 751.543 4.1642 3.9404 0
M  V30 7751 H 749.94 4.84617 3.5393 0
M  V30 7752 H 751.01 4.30374 2.23397 0
M  V30 7753 N 752.353 -0.854086 1.3245 0
M  V30 7754 C 753.769 -1.14238 1.11453 0
M  V30 7755 C 753.969 -2.01228 -0.10461 0
M  V30 7756 O 753.025 -2.39845 -0.789339 0
M  V30 7757 C 754.338 -1.81916 2.39431 0
M  V30 7758 C 755.886 -1.94549 2.45193 0
M  V30 7759 C 756.361 -2.65642 3.73093 0
M  V30 7760 N 757.852 -2.73167 3.74078 0
M  V30 7761 C 758.587 -3.28828 4.69744 0
M  V30 7762 N 758.083 -3.85295 5.75778 0
M  V30 7763 N 759.876 -3.26936 4.57241 0
M  V30 7764 H 752.027 -0.274786 2.10615 0
M  V30 7765 H 754.29 -0.184375 0.929898 0
M  V30 7766 H 753.996 -1.25452 3.28565 0
M  V30 7767 H 753.87 -2.82068 2.50434 0
M  V30 7768 H 756.257 -2.50172 1.56518 0
M  V30 7769 H 756.338 -0.933914 2.38142 0
M  V30 7770 H 755.982 -2.10683 4.62142 0
M  V30 7771 H 755.912 -3.6724 3.77415 0
M  V30 7772 H 758.403 -2.33108 2.97438 0
M  V30 7773 H 758.716 -4.25925 6.44832 0
M  V30 7774 H 757.061 -3.83625 5.79531 0
M  V30 7775 H 760.252 -2.8207 3.7357 0
M  V30 7776 H 760.425 -3.70014 5.31971 0
M  V30 7777 N 753.831 -1.1567 -1.07043 0
M  V30 7778 C 754.761 -0.879348 -2.16309 0
M  V30 7779 C 755.742 0.171311 -1.69235 0
M  V30 7780 O 756.927 0.0250175 -1.94184 0
M  V30 7781 C 754.057 -0.371307 -3.45309 0
M  V30 7782 C 753.011 -1.359 -4.05851 0
M  V30 7783 C 752.337 -0.709678 -5.29969 0
M  V30 7784 C 753.637 -2.72606 -4.45514 0
M  V30 7785 H 755.331 -1.79308 -2.39768 0
M  V30 7786 H 752.877 -0.863558 -1.15233 0
M  V30 7787 H 754.83 -0.164798 -4.21078 0
M  V30 7788 H 753.554 0.577906 -3.21446 0
M  V30 7789 H 752.213 -1.55193 -3.32131 0
M  V30 7790 H 751.861 0.245782 -5.02399 0
M  V30 7791 H 751.561 -1.36886 -5.71433 0
M  V30 7792 H 753.085 -0.513015 -6.08441 0
M  V30 7793 H 754.499 -2.57141 -5.12398 0
M  V30 7794 H 752.896 -3.34927 -4.97939 0
M  V30 7795 H 753.966 -3.28434 -3.56734 0
M  V30 7796 N 755.309 1.25446 -0.953992 0
M  V30 7797 C 756.539 1.96929 -0.624688 0
M  V30 7798 C 756.947 1.71112 0.807292 0
M  V30 7799 O 756.29 0.983512 1.55154 0
M  V30 7800 C 756.352 3.50425 -0.802676 0
M  V30 7801 C 756.016 3.99916 -2.21169 0
M  V30 7802 C 757.013 4.10662 -3.18831 0
M  V30 7803 C 754.698 4.33598 -2.53571 0
M  V30 7804 C 756.692 4.54401 -4.46988 0
M  V30 7805 C 754.379 4.77024 -3.81958 0
M  V30 7806 C 755.377 4.87388 -4.78478 0
M  V30 7807 O 755.065 5.29851 -6.04577 0
M  V30 7808 H 754.797 0.634511 -0.233179 0
M  V30 7809 H 757.351 1.60591 -1.28061 0
M  V30 7810 H 755.581 3.86596 -0.0896044 0
M  V30 7811 H 757.27 4.03117 -0.47452 0
M  V30 7812 H 758.036 3.84872 -2.95124 0
M  V30 7813 H 753.915 4.24757 -1.79171 0
M  V30 7814 H 757.459 4.62406 -5.22328 0
M  V30 7815 H 753.356 5.02258 -4.05471 0
M  V30 7816 H 754.124 5.48039 -6.07944 0
M  V30 7817 N 756.787 0.722489 1.40064 0
M  V30 7818 C 758.203 0.396758 1.5459 0
M  V30 7819 C 758.403 -1.09375 1.69232 0
M  V30 7820 O 757.459 -1.87984 1.68578 0
M  V30 7821 C 758.772 1.16885 2.77053 0
M  V30 7822 C 760.32 1.15583 2.90877 0
M  V30 7823 C 760.795 1.91023 4.16262 0
M  V30 7824 N 762.286 1.88126 4.23276 0
M  V30 7825 C 763.021 2.43315 5.19216 0
M  V30 7826 N 762.517 3.07089 6.21022 0
M  V30 7827 N 764.31 2.33418 5.11344 0
M  V30 7828 H 756.461 1.68887 1.28806 0
M  V30 7829 H 758.724 0.714231 0.62336 0
M  V30 7830 H 758.43 2.22301 2.72534 0
M  V30 7831 H 758.304 0.765011 3.69361 0
M  V30 7832 H 760.691 0.10984 2.94896 0
M  V30 7833 H 760.772 1.59895 1.99668 0
M  V30 7834 H 760.416 2.95616 4.13006 0
M  V30 7835 H 760.346 1.44126 5.06493 0
M  V30 7836 H 762.837 1.41654 3.50346 0
M  V30 7837 H 763.15 3.467 6.90666 0
M  V30 7838 H 761.495 3.11175 6.21446 0
M  V30 7839 H 764.686 1.83248 4.30741 0
M  V30 7840 H 764.859 2.7673 5.85939 0
M  V30 7841 N 758.265 -1.50454 0.469181 0
M  V30 7842 C 759.542 -1.9504 -0.147955 0
M  V30 7843 C 759.922 -1.40946 -1.57154 0
M  V30 7844 O 759.27 -0.609663 -2.20217 0
M  V30 7845 C 759.48 -3.48875 -0.0932198 0
M  V30 7846 C 760.828 -4.23655 -0.283056 0
M  V30 7847 O 761.852 -3.55795 -0.169892 0
M  V30 7848 O 760.711 -5.44102 -0.511396 0
M  V30 7849 H 757.805 -0.819283 -0.11271 0
M  V30 7850 H 760.351 -1.6123 0.529446 0
M  V30 7851 H 759.123 -3.80791 0.900784 0
M  V30 7852 H 758.746 -3.89217 -0.812161 0
M  V30 7853 N 759.743 -0.201713 -1.56304 0
M  V30 7854 C 760.673 0.71155 -2.22394 0
M  V30 7855 C 761.654 1.21625 -1.18917 0
M  V30 7856 O 762.839 1.26388 -1.47444 0
M  V30 7857 C 759.969 1.92837 -2.88845 0
M  V30 7858 C 758.923 1.55831 -3.98623 0
M  V30 7859 C 758.249 2.85228 -4.52271 0
M  V30 7860 C 759.549 0.763249 -5.16693 0
M  V30 7861 H 761.243 0.160573 -2.98969 0
M  V30 7862 H 758.789 0.0757916 -1.438 0
M  V30 7863 H 760.742 2.57253 -3.33764 0
M  V30 7864 H 759.466 2.50398 -2.09686 0
M  V30 7865 H 758.125 0.9377 -3.54405 0
M  V30 7866 H 757.773 3.40893 -3.69866 0
M  V30 7867 H 757.473 2.6121 -5.26349 0
M  V30 7868 H 758.997 3.50622 -4.99897 0
M  V30 7869 H 760.411 1.31066 -5.58117 0
M  V30 7870 H 758.808 0.620935 -5.96879 0
M  V30 7871 H 759.878 -0.234322 -4.84334 0
M  V30 7872 N 761.222 1.57436 0.0718424 0
M  V30 7873 C 762.152 2.06724 1.08571 0
M  V30 7874 C 763.133 0.960731 1.40371 0
M  V30 7875 O 764.318 1.23345 1.49999 0
M  V30 7876 C 761.448 2.51112 2.39916 0
M  V30 7877 C 760.402 3.65639 2.22469 0
M  V30 7878 C 759.728 3.96082 3.59198 0
M  V30 7879 C 761.028 4.95687 1.64596 0
M  V30 7880 H 762.722 2.91679 0.675569 0
M  V30 7881 H 760.268 1.40319 0.32352 0
M  V30 7882 H 762.221 2.84206 3.11135 0
M  V30 7883 H 760.945 1.63186 2.8291 0
M  V30 7884 H 759.604 3.32828 1.53691 0
M  V30 7885 H 759.252 3.05287 3.99761 0
M  V30 7886 H 758.952 4.73199 3.48362 0
M  V30 7887 H 760.476 4.31672 4.31847 0
M  V30 7888 H 761.89 5.27011 2.25681 0
M  V30 7889 H 760.287 5.77126 1.64457 0
M  V30 7890 H 761.357 4.8108 0.60744 0
M  V30 7891 N 762.7 -0.34323 1.53817 0
M  V30 7892 C 764.116 -0.686355 1.44088 0
M  V30 7893 C 764.316 -1.92426 0.597882 0
M  V30 7894 O 763.372 -2.52343 0.0889918 0
M  V30 7895 C 764.685 -0.878698 2.87575 0
M  V30 7896 C 766.233 -0.977296 2.97352 0
M  V30 7897 C 766.708 -1.20195 4.41947 0
M  V30 7898 N 768.199 -1.26915 4.45474 0
M  V30 7899 C 768.934 -1.46049 5.54488 0
M  V30 7900 N 768.43 -1.62354 6.73508 0
M  V30 7901 N 770.223 -1.48599 5.42102 0
M  V30 7902 H 762.374 0.470679 2.07119 0
M  V30 7903 H 764.637 0.148652 0.936273 0
M  V30 7904 H 764.343 -0.040602 3.51677 0
M  V30 7905 H 764.217 -1.78034 3.32541 0
M  V30 7906 H 766.604 -1.80591 2.3339 0
M  V30 7907 H 766.685 -0.0525498 2.55746 0
M  V30 7908 H 766.329 -0.378262 5.06489 0
M  V30 7909 H 766.259 -2.14027 4.81145 0
M  V30 7910 H 768.75 -1.15837 3.59708 0
M  V30 7911 H 769.063 -1.76591 7.52353 0
M  V30 7912 H 767.408 -1.5949 6.76453 0
M  V30 7913 H 770.599 -1.35443 4.48077 0
M  V30 7914 H 770.772 -1.6317 6.2712 0
M  V30 7915 N 764.178 -1.45556 -0.604258 0
M  V30 7916 C 765.108 -1.57327 -1.72541 0
M  V30 7917 C 766.089 -0.424637 -1.64714 0
M  V30 7918 O 767.274 -0.648196 -1.83063 0
M  V30 7919 C 764.404 -1.54279 -3.11152 0
M  V30 7920 C 763.358 -2.67893 -3.33792 0
M  V30 7921 C 762.684 -2.499 -4.72709 0
M  V30 7922 C 763.984 -4.0988 -3.23722 0
M  V30 7923 H 765.678 -2.51175 -1.62947 0
M  V30 7924 H 763.224 -1.20884 -0.782504 0
M  V30 7925 H 765.177 -1.6111 -3.89386 0
M  V30 7926 H 763.901 -0.569627 -3.21594 0
M  V30 7927 H 762.56 -2.60495 -2.57949 0
M  V30 7928 H 762.208 -1.50715 -4.79889 0
M  V30 7929 H 761.908 -3.26091 -4.88813 0
M  V30 7930 H 763.432 -2.5859 -5.5314 0
M  V30 7931 H 764.846 -4.18503 -3.91826 0
M  V30 7932 H 763.243 -4.86487 -3.51355 0
M  V30 7933 H 764.313 -4.31553 -2.21111 0
M  V30 7934 N 765.656 0.84705 -1.32902 0
M  V30 7935 C 767.072 1.13645 -1.12058 0
M  V30 7936 C 767.272 2.01281 0.093937 0
M  V30 7937 O 766.328 2.4026 0.776608 0
M  V30 7938 C 767.641 1.80644 -2.40392 0
M  V30 7939 C 769.189 1.93246 -2.46221 0
M  V30 7940 C 769.664 2.6366 -3.74496 0
M  V30 7941 N 771.155 2.71179 -3.75521 0
M  V30 7942 C 771.89 3.26332 -4.71482 0
M  V30 7943 N 771.386 3.82236 -5.77813 0
M  V30 7944 N 773.179 3.24507 -4.58968 0
M  V30 7945 H 765.33 0.263612 -2.10758 0
M  V30 7946 H 767.593 0.17944 -0.930863 0
M  V30 7947 H 767.299 1.23708 -3.29225 0
M  V30 7948 H 767.173 2.80736 -2.51926 0
M  V30 7949 H 769.56 2.49338 -1.57843 0
M  V30 7950 H 769.641 0.921272 -2.38634 0
M  V30 7951 H 769.285 2.08229 -4.63253 0
M  V30 7952 H 769.215 3.65234 -3.79357 0
M  V30 7953 H 771.706 2.31527 -2.9867 0
M  V30 7954 H 772.019 4.22499 -6.47082 0
M  V30 7955 H 770.364 3.80546 -5.81558 0
M  V30 7956 H 773.555 2.80085 -3.7506 0
M  V30 7957 H 773.728 3.67188 -5.33926 0
M  V30 7958 N 767.134 1.16236 1.06428 0
M  V30 7959 C 768.55 0.906983 1.31324 0
M  V30 7960 C 768.75 -0.440872 1.96618 0
M  V30 7961 O 767.806 -1.1807 2.23194 0
M  V30 7962 C 769.119 2.05501 2.19522 0
M  V30 7963 C 770.667 2.09061 2.32943 0
M  V30 7964 C 771.142 3.23214 3.24495 0
M  V30 7965 N 772.633 3.22922 3.32078 0
M  V30 7966 C 773.368 4.07889 4.03006 0
M  V30 7967 N 772.864 5.02941 4.76469 0
M  V30 7968 N 774.657 3.95881 3.99043 0
M  V30 7969 H 766.808 2.03015 0.624388 0
M  V30 7970 H 769.071 0.88576 0.337835 0
M  V30 7971 H 768.777 3.02847 1.78819 0
M  V30 7972 H 768.651 1.99538 3.201 0
M  V30 7973 H 771.038 1.12308 2.72893 0
M  V30 7974 H 771.119 2.19089 1.32037 0
M  V30 7975 H 770.763 4.20225 2.85261 0
M  V30 7976 H 770.693 3.10423 4.25377 0
M  V30 7977 H 773.184 2.54093 2.79724 0
M  V30 7978 H 773.497 5.64196 5.28112 0
M  V30 7979 H 771.842 5.06922 4.75453 0
M  V30 7980 H 775.033 3.20927 3.40769 0
M  V30 7981 H 775.206 4.62321 4.54052 0
M  V30 7982 N 768.612 -1.24939 0.960631 0
M  V30 7983 C 769.522 -2.29374 0.492435 0
M  V30 7984 C 770.538 -1.68262 -0.443154 0
M  V30 7985 O 771.714 -1.98875 -0.31793 0
M  V30 7986 C 768.779 -3.46023 -0.216626 0
M  V30 7987 C 767.84 -4.22557 0.757915 0
M  V30 7988 C 767.073 -5.33636 0.0825969 0
M  V30 7989 O 767.296 -5.59084 -1.13054 0
M  V30 7990 O 766.23 -5.96939 0.771177 0
M  V30 7991 H 770.056 -2.71525 1.36044 0
M  V30 7992 H 767.641 -1.30499 0.72735 0
M  V30 7993 H 769.523 -4.16885 -0.615241 0
M  V30 7994 H 768.198 -3.05862 -1.05971 0
M  V30 7995 H 767.105 -3.54099 1.20685 0
M  V30 7996 H 768.438 -4.66516 1.5692 0
M  V30 7997 N 770.09 -0.729906 -1.39679 0
M  V30 7998 C 771.367 -0.202149 -1.94553 0
M  V30 7999 C 771.747 1.29507 -1.66707 0
M  V30 8000 O 771.095 2.05819 -0.992517 0
M  V30 8001 C 771.305 -0.530279 -3.44948 0
M  V30 8002 C 772.653 -0.476808 -4.21914 0
M  V30 8003 O 773.677 -0.467171 -3.53123 0
M  V30 8004 O 772.536 -0.466869 -5.44502 0
M  V30 8005 H 769.63 -0.0351644 -0.826252 0
M  V30 8006 H 772.176 -0.808417 -1.49207 0
M  V30 8007 H 770.948 -1.56526 -3.5863 0
M  V30 8008 H 770.571 0.10522 -3.97461 0
M  V30 8009 N 771.568 1.50203 -0.477153 0
M  V30 8010 C 772.979 1.86685 -0.0235041 0
M  V30 8011 C 773.33 1.39148 1.38319 0
M  V30 8012 O 772.455 0.759051 2.02651 0
M  V30 8013 C 773.05 3.38781 -0.0358767 0
M  V30 8014 C 771.609 3.74652 0.362327 0
M  V30 8015 C 770.756 2.7412 -0.41875 0
M  V30 8016 H 773.707 1.4286 -0.691133 0
M  V30 8017 H 773.728 3.72732 0.764924 0
M  V30 8018 H 773.24 3.73349 -1.05981 0
M  V30 8019 H 771.341 3.45686 1.39039 0
M  V30 8020 H 771.454 4.79063 0.059457 0
M  V30 8021 H 769.818 2.54376 0.128341 0
M  V30 8022 H 770.601 3.11532 -1.44231 0
M  V30 8023 N 773.046 0.209999 1.56195 0
M  V30 8024 C 774.292 -0.425442 1.98287 0
M  V30 8025 C 774.625 -1.60232 1.09724 0
M  V30 8026 O 773.9 -1.93902 0.152414 0
M  V30 8027 C 774.183 -0.871189 3.49403 0
M  V30 8028 C 774.036 0.308527 4.48741 0
M  V30 8029 C 775.355 -1.73146 4.04609 0
M  V30 8030 H 772.474 -0.153169 0.720908 0
M  V30 8031 H 775.116 0.303916 1.87554 0
M  V30 8032 H 773.266 -1.49266 3.58681 0
M  V30 8033 H 774.938 0.946487 4.51486 0
M  V30 8034 H 773.181 0.957878 4.23092 0
M  V30 8035 H 773.852 -0.0461143 5.51981 0
M  V30 8036 H 776.328 -1.2072 3.98203 0
M  V30 8037 H 775.204 -2.01228 5.10684 0
M  V30 8038 H 775.465 -2.69083 3.5078 0
M  V30 8039 N 774.524 -1.57472 -0.0634922 0
M  V30 8040 C 775.454 -2.07297 -1.07473 0
M  V30 8041 C 776.435 -0.968162 -1.39859 0
M  V30 8042 O 777.62 -1.24139 -1.49343 0
M  V30 8043 C 774.75 -2.52381 -2.38581 0
M  V30 8044 C 773.704 -3.66813 -2.20526 0
M  V30 8045 C 773.03 -3.97982 -3.57092 0
M  V30 8046 C 774.33 -4.96553 -1.61965 0
M  V30 8047 H 776.024 -2.92033 -0.660092 0
M  V30 8048 H 773.57 -1.40488 -0.316074 0
M  V30 8049 H 775.523 -2.85852 -3.09624 0
M  V30 8050 H 774.247 -1.64684 -2.8204 0
M  V30 8051 H 772.906 -3.33639 -1.51924 0
M  V30 8052 H 772.554 -3.07403 -3.98136 0
M  V30 8053 H 772.254 -4.7504 -3.45848 0
M  V30 8054 H 773.778 -4.33956 -4.29552 0
M  V30 8055 H 775.192 -5.28201 -2.22883 0
M  V30 8056 H 773.589 -5.7799 -1.61394 0
M  V30 8057 H 774.659 -4.81396 -0.581918 0
M  V30 8058 N 776.003 0.335068 -1.53997 0
M  V30 8059 C 776.953 1.4127 -1.7896 0
M  V30 8060 C 777.937 1.474 -0.64513 0
M  V30 8061 O 779.129 1.52127 -0.904785 0
M  V30 8062 C 776.258 2.78292 -2.01018 0
M  V30 8063 C 775.344 2.7652 -3.21555 0
M  V30 8064 N 775.735 2.44374 -4.42849 0
M  V30 8065 C 774.033 3.0766 -3.22895 0
M  V30 8066 C 774.734 2.51049 -5.24737 0
M  V30 8067 N 773.71 2.8702 -4.6165 0
M  V30 8068 H 777.512 1.15327 -2.70327 0
M  V30 8069 H 775.026 0.543483 -1.53036 0
M  V30 8070 H 777.023 3.55949 -2.17039 0
M  V30 8071 H 775.683 3.05175 -1.10898 0
M  V30 8072 H 776.694 2.17422 -4.70051 0
M  V30 8073 H 773.371 3.3966 -2.42771 0
M  V30 8074 H 774.761 2.29283 -6.31569 0
M  V30 8075 N 777.481 1.45874 0.596531 0
M  V30 8076 C 778.429 1.55739 1.72766 0
M  V30 8077 C 779.423 0.426666 1.63939 0
M  V30 8078 O 780.629 0.60301 1.69599 0
M  V30 8079 H 777.004 0.489386 0.570968 0
M  V30 8080 H 778.975 2.50871 1.61575 0
M  V30 8081 C 777.724 1.55174 3.11153 0
M  V30 8082 H 777.047 2.41511 3.1861 0
M  V30 8083 H 778.487 1.66133 3.90097 0
M  V30 8084 C 776.946 0.278001 3.35751 0
M  V30 8085 O 777.476 -0.637557 3.96608 0
M  V30 8086 N 775.682 0.170227 2.90101 0
M  V30 8087 H 775.229 0.916159 2.40758 0
M  V30 8088 H 775.187 -0.68117 3.06932 0
M  V30 8089 N 778.959 -0.83999 1.33349 0
M  V30 8090 C 780.375 -1.13049 1.12659 0
M  V30 8091 C 780.575 -2.01328 -0.0832613 0
M  V30 8092 O 779.631 -2.40669 -0.763856 0
M  V30 8093 C 780.944 -1.79366 2.41347 0
M  V30 8094 C 782.492 -1.91937 2.47243 0
M  V30 8095 C 782.967 -2.6167 3.75889 0
M  V30 8096 N 784.458 -2.69184 3.76954 0
M  V30 8097 C 785.193 -3.23827 4.73206 0
M  V30 8098 N 784.689 -3.79166 5.79832 0
M  V30 8099 N 786.482 -3.22068 4.60683 0
M  V30 8100 H 778.633 -0.252432 2.10895 0
M  V30 8101 H 780.896 -0.174501 0.931801 0
M  V30 8102 H 780.602 -1.2196 3.29877 0
M  V30 8103 H 780.476 -2.79396 2.53412 0
M  V30 8104 H 782.863 -2.48498 1.59163 0
M  V30 8105 H 782.944 -0.908604 2.39119 0
M  V30 8106 H 782.588 -2.05769 4.64351 0
M  V30 8107 H 782.518 -3.63217 3.81289 0
M  V30 8108 H 785.009 -2.2994 2.99893 0
M  V30 8109 H 785.322 -4.19061 6.49313 0
M  V30 8110 H 783.667 -3.77457 5.83568 0
M  V30 8111 H 786.858 -2.78092 3.7654 0
M  V30 8112 H 787.031 -3.64351 5.35866 0
M  V30 8113 N 780.437 -1.16799 -1.0581 0
M  V30 8114 C 781.369 -0.836774 -2.13379 0
M  V30 8115 C 782.382 0.158116 -1.6203 0
M  V30 8116 O 783.571 -0.0673211 -1.78373 0
M  V30 8117 C 780.671 -0.225959 -3.38146 0
M  V30 8118 C 779.844 -1.26217 -4.18794 0
M  V30 8119 C 778.903 -0.670257 -5.21914 0
M  V30 8120 O 777.929 -1.34042 -5.53192 0
M  V30 8121 N 779.131 0.540683 -5.77977 0
M  V30 8122 H 781.896 -1.76257 -2.42391 0
M  V30 8123 H 779.457 -1.06599 -1.21853 0
M  V30 8124 H 781.449 0.18317 -4.04285 0
M  V30 8125 H 780.019 0.603494 -3.06719 0
M  V30 8126 H 779.239 -1.84729 -3.48237 0
M  V30 8127 H 780.527 -1.9613 -4.69479 0
M  V30 8128 H 779.925 1.10322 -5.54838 0
M  V30 8129 H 778.482 0.891958 -6.45668 0
M  V30 8130 N 781.915 1.24427 -0.967243 0
M  V30 8131 C 783.331 1.44684 -0.6737 0
M  V30 8132 C 783.531 1.86429 0.764625 0
M  V30 8133 O 782.587 2.00211 1.53857 0
M  V30 8134 C 783.9 2.509 -1.6574 0
M  V30 8135 C 785.448 2.64728 -1.66998 0
M  V30 8136 C 785.923 3.7414 -2.64165 0
M  V30 8137 N 787.414 3.81567 -2.62604 0
M  V30 8138 C 788.149 4.6575 -3.34462 0
M  V30 8139 N 787.645 5.54124 -4.15835 0
M  V30 8140 N 789.438 4.59827 -3.23288 0
M  V30 8141 H 781.589 0.956276 -1.89655 0
M  V30 8142 H 783.852 0.48171 -0.816492 0
M  V30 8143 H 783.558 2.27113 -2.68538 0
M  V30 8144 H 783.432 3.4905 -1.42981 0
M  V30 8145 H 785.819 2.87872 -0.649121 0
M  V30 8146 H 785.9 1.66936 -1.93819 0
M  V30 8147 H 785.544 3.51745 -3.66384 0
M  V30 8148 H 785.474 4.71444 -2.34623 0
M  V30 8149 H 787.965 3.18403 -2.03539 0
M  V30 8150 H 788.278 6.15316 -4.67553 0
M  V30 8151 H 786.623 5.53791 -4.19929 0
M  V30 8152 H 789.814 3.898 -2.59179 0
M  V30 8153 H 789.987 5.25208 -3.79553 0
M  V30 8154 N 783.393 0.737304 1.3929 0
M  V30 8155 C 784.303 0.100464 2.34385 0
M  V30 8156 C 785.319 -0.719282 1.58437 0
M  V30 8157 O 786.495 -0.647216 1.90717 0
M  V30 8158 C 783.56 -0.794325 3.37478 0
M  V30 8159 C 782.621 0.0379345 4.29283 0
M  V30 8160 C 781.854 -0.814241 5.27452 0
M  V30 8161 O 782.077 -2.05288 5.32177 0
M  V30 8162 O 781.011 -0.241679 6.01415 0
M  V30 8163 H 784.837 0.885407 2.90507 0
M  V30 8164 H 782.422 0.497999 1.40856 0
M  V30 8165 H 784.304 -1.30622 4.00644 0
M  V30 8166 H 782.979 -1.55804 2.83737 0
M  V30 8167 H 781.886 0.595405 3.69331 0
M  V30 8168 H 783.219 0.763926 4.86236 0
M  V30 8169 N 784.871 -1.49948 0.485112 0
M  V30 8170 C 785.819 -2.30449 -0.315609 0
M  V30 8171 C 786.813 -1.38351 -0.977516 0
M  V30 8172 O 788.019 -1.55477 -0.907019 0
M  V30 8173 H 784.394 -0.742262 -0.120629 0
M  V30 8174 H 786.365 -2.95925 0.383552 0
M  V30 8175 C 785.114 -3.19283 -1.37673 0
M  V30 8176 H 784.437 -3.90067 -0.876801 0
M  V30 8177 H 785.877 -3.78579 -1.90929 0
M  V30 8178 C 784.336 -2.37817 -2.38631 0
M  V30 8179 O 784.866 -2.0711 -3.44192 0
M  V30 8180 N 783.072 -2.00135 -2.107 0
M  V30 8181 H 782.619 -2.25307 -1.24878 0
M  V30 8182 H 782.577 -1.45933 -2.7848 0
M  V30 8183 N 786.349 -0.21828 -1.56081 0
M  V30 8184 C 787.279 0.687922 -2.23136 0
M  V30 8185 C 788.26 1.20357 -1.202 0
M  V30 8186 O 789.445 1.24817 -1.48776 0
M  V30 8187 C 786.575 1.89762 -2.90874 0
M  V30 8188 C 785.529 1.51595 -4.00254 0
M  V30 8189 C 784.855 2.80415 -4.55271 0
M  V30 8190 C 786.155 0.708404 -5.17474 0
M  V30 8191 H 787.849 0.128854 -2.99123 0
M  V30 8192 H 785.395 0.0605354 -1.43873 0
M  V30 8193 H 787.348 2.53699 -3.36474 0
M  V30 8194 H 786.072 2.4816 -2.1233 0
M  V30 8195 H 784.731 0.900058 -3.55379 0
M  V30 8196 H 784.379 3.36951 -3.73461 0
M  V30 8197 H 784.079 2.55613 -5.2909 0
M  V30 8198 H 785.603 3.453 -5.03587 0
M  V30 8199 H 787.017 1.2514 -5.59476 0
M  V30 8200 H 785.414 0.557593 -5.97504 0
M  V30 8201 H 786.484 -0.285679 -4.84058 0
M  V30 8202 N 787.827 1.57504 0.0551401 0
M  V30 8203 C 789.055 1.92294 0.76358 0
M  V30 8204 C 789.47 0.815774 1.70266 0
M  V30 8205 O 788.827 -0.209772 1.8129 0
M  V30 8206 C 788.878 3.26914 1.54302 0
M  V30 8207 O 788.599 4.33375 0.641666 0
M  V30 8208 C 790.1 3.75825 2.35097 0
M  V30 8209 H 787.32 0.635229 0.216159 0
M  V30 8210 H 789.864 2.0449 0.0204385 0
M  V30 8211 H 788.019 3.16196 2.23828 0
M  V30 8212 H 788.433 5.10927 1.1855 0
M  V30 8213 H 789.907 4.72603 2.8522 0
M  V30 8214 H 790.384 3.0568 3.15367 0
M  V30 8215 H 790.99 3.89542 1.70696 0
M  V30 8216 N 789.305 -0.326896 1.54172 0
M  V30 8217 C 790.533 -1.08486 1.76177 0
M  V30 8218 C 790.948 -1.81815 0.508788 0
M  V30 8219 O 790.305 -1.74924 -0.520362 0
M  V30 8220 C 790.356 -2.08552 2.95276 0
M  V30 8221 O 790.077 -1.38202 4.15731 0
M  V30 8222 C 791.578 -2.96593 3.29466 0
M  V30 8223 H 788.798 -0.322835 0.588233 0
M  V30 8224 H 791.342 -0.374036 2.0105 0
M  V30 8225 H 789.497 -2.75174 2.72687 0
M  V30 8226 H 789.911 -2.05186 4.827 0
M  V30 8227 H 791.385 -3.62708 4.16109 0
M  V30 8228 H 791.862 -3.63511 2.46487 0
M  V30 8229 H 792.468 -2.35537 3.54122 0
M  V30 8230 N 790.784 -1.46188 -0.588786 0
M  V30 8231 C 792.032 -1.50885 -1.34455 0
M  V30 8232 C 792.353 -0.159555 -1.94346 0
M  V30 8233 O 791.623 0.813239 -1.78222 0
M  V30 8234 H 790.203 -0.555707 -0.499198 0
M  V30 8235 H 792.865 -1.82277 -0.690014 0
M  V30 8236 H 791.961 -2.25816 -2.15438 0
M  V30 8237 N 792.262 0.832906 -1.33792 0
M  V30 8238 C 793.212 1.93178 -1.21105 0
M  V30 8239 C 794.196 1.60506 -0.112491 0
M  V30 8240 O 795.388 1.73681 -0.341179 0
M  V30 8241 C 792.517 3.29647 -0.958526 0
M  V30 8242 C 791.603 3.68469 -2.0998 0
M  V30 8243 N 791.994 3.78936 -3.35024 0
M  V30 8244 C 790.292 3.98249 -2.00782 0
M  V30 8245 C 790.993 4.12731 -4.09912 0
M  V30 8246 N 789.969 4.25419 -3.38407 0
M  V30 8247 H 793.771 1.99434 -2.15878 0
M  V30 8248 H 791.285 1.02598 -1.25886 0
M  V30 8249 H 793.282 4.08173 -0.848552 0
M  V30 8250 H 791.942 3.24694 -0.019387 0
M  V30 8251 H 792.953 3.62688 -3.69699 0
M  V30 8252 H 789.63 4.01474 -1.14564 0
M  V30 8253 H 791.02 4.28117 -5.17847 0
M  V30 8254 N 793.74 1.17359 1.05189 0
M  V30 8255 C 795.017 0.871914 1.75091 0
M  V30 8256 C 795.397 -0.627821 2.01548 0
M  V30 8257 O 794.745 -1.5791 1.65156 0
M  V30 8258 C 794.955 1.70687 3.04413 0
M  V30 8259 C 796.303 1.92684 3.78362 0
M  V30 8260 O 797.327 1.67645 3.14282 0
M  V30 8261 O 796.186 2.34765 4.93505 0
M  V30 8262 H 793.28 0.322831 0.761386 0
M  V30 8263 H 795.826 1.28054 1.11357 0
M  V30 8264 H 794.598 2.72405 2.80911 0
M  V30 8265 H 794.221 1.29602 3.75884 0
M  V30 8266 N 795.218 -1.23913 0.973828 0
M  V30 8267 C 796.466 -1.91771 0.637817 0
M  V30 8268 C 796.787 -1.76434 -0.830435 0
M  V30 8269 O 796.057 -1.13965 -1.59339 0
M  V30 8270 H 794.637 -0.709761 0.232912 0
M  V30 8271 H 797.299 -1.50677 1.23622 0
M  V30 8272 H 796.395 -2.99327 0.883731 0
M  V30 8273 N 796.696 -0.74468 -1.38897 0
M  V30 8274 C 797.973 -0.222773 -1.94327 0
M  V30 8275 C 798.353 1.27731 -1.68071 0
M  V30 8276 O 797.701 2.04754 -1.01429 0
M  V30 8277 C 797.911 -0.566836 -3.44366 0
M  V30 8278 C 799.259 -0.521531 -4.21385 0
M  V30 8279 O 800.283 -0.504599 -3.52608 0
M  V30 8280 O 799.142 -0.524595 -5.43976 0
M  V30 8281 H 796.236 -0.0439259 -0.825833 0
M  V30 8282 H 798.782 -0.824197 -1.48341 0
M  V30 8283 H 797.554 -1.60321 -3.56949 0
M  V30 8284 H 797.177 0.0630577 -3.9755 0
M  V30 8285 N 798.174 1.49689 -0.493057 0
M  V30 8286 C 799.42 2.02727 0.0543518 0
M  V30 8287 C 799.753 1.37264 1.37376 0
M  V30 8288 O 799.028 0.505644 1.87812 0
M  V30 8289 C 799.311 3.59456 0.215226 0
M  V30 8290 C 799.164 4.35459 -1.12675 0
M  V30 8291 C 800.483 4.29511 0.959586 0
M  V30 8292 H 797.602 0.736773 0.0182786 0
M  V30 8293 H 800.244 1.78792 -0.642924 0
M  V30 8294 H 798.394 3.79981 0.809122 0
M  V30 8295 H 800.066 4.2645 -1.75891 0
M  V30 8296 H 798.309 3.9833 -1.71801 0
M  V30 8297 H 798.98 5.43454 -0.967578 0
M  V30 8298 H 801.456 4.13594 0.455977 0
M  V30 8299 H 800.332 5.38939 1.04098 0
M  V30 8300 H 800.593 3.94202 2.00144 0
M  V30 8301 N 799.652 0.226554 1.55963 0
M  V30 8302 C 800.582 -0.676079 2.23498 0
M  V30 8303 C 801.563 -1.19718 1.20837 0
M  V30 8304 O 802.748 -1.24027 1.49436 0
M  V30 8305 C 799.878 -1.88217 2.91876 0
M  V30 8306 C 798.832 -1.4947 4.01052 0
M  V30 8307 C 798.158 -2.77997 4.56751 0
M  V30 8308 C 799.458 -0.680951 5.17842 0
M  V30 8309 H 801.152 -0.112989 2.99187 0
M  V30 8310 H 798.698 -0.0529046 1.43903 0
M  V30 8311 H 800.651 -2.51911 3.37815 0
M  V30 8312 H 799.375 -2.47031 2.13643 0
M  V30 8313 H 798.034 -0.881199 3.55852 0
M  V30 8314 H 797.682 -3.34966 3.75243 0
M  V30 8315 H 797.382 -2.52803 5.30438 0
M  V30 8316 H 798.906 -3.42625 5.05411 0
M  V30 8317 H 800.32 -1.22171 5.60131 0
M  V30 8318 H 798.717 -0.525898 5.97791 0
M  V30 8319 H 799.787 0.311346 4.83899 0
M  V30 8320 N 801.13 -1.57531 -0.0467866 0
M  V30 8321 C 802.376 -1.89584 -0.736837 0
M  V30 8322 C 802.731 -0.82317 -1.73901 0
M  V30 8323 O 802.024 0.170098 -1.90843 0
M  V30 8324 C 802.218 -3.26091 -1.46285 0
M  V30 8325 C 802.047 -4.46536 -0.532502 0
M  V30 8326 C 800.817 -5.05046 -0.160109 0
M  V30 8327 C 803.015 -5.13979 0.181555 0
M  V30 8328 N 800.997 -6.09009 0.773349 0
M  V30 8329 C 802.368 -6.12345 0.971297 0
M  V30 8330 C 804.423 -4.9727 0.250382 0
M  V30 8331 C 803.126 -6.95802 1.82351 0
M  V30 8332 C 805.152 -5.81275 1.08965 0
M  V30 8333 C 804.514 -6.79197 1.86737 0
M  V30 8334 H 800.613 -0.742868 -0.244277 0
M  V30 8335 H 803.197 -1.947 0.0025481 0
M  V30 8336 H 801.368 -3.21938 -2.1728 0
M  V30 8337 H 803.1 -3.45715 -2.10389 0
M  V30 8338 H 799.855 -4.70754 -0.518457 0
M  V30 8339 H 800.279 -6.65658 1.23406 0
M  V30 8340 H 804.921 -4.21458 -0.336578 0
M  V30 8341 H 802.639 -7.70971 2.42134 0
M  V30 8342 H 806.225 -5.70397 1.14621 0
M  V30 8343 H 805.105 -7.4307 2.50631 0
M  V30 8344 N 802.608 0.318715 -1.54344 0
M  V30 8345 C 803.854 1.05765 -1.73037 0
M  V30 8346 C 804.187 1.87514 -0.505181 0
M  V30 8347 O 803.462 1.88021 0.497838 0
M  V30 8348 C 803.745 1.97836 -3.00887 0
M  V30 8349 C 803.598 1.19384 -4.33668 0
M  V30 8350 C 804.917 2.97285 -3.24514 0
M  V30 8351 H 802.036 0.383104 -0.629603 0
M  V30 8352 H 804.678 0.333864 -1.87044 0
M  V30 8353 H 802.828 2.59552 -2.89076 0
M  V30 8354 H 804.5 0.600906 -4.57369 0
M  V30 8355 H 802.743 0.496198 -4.30953 0
M  V30 8356 H 803.414 1.87014 -5.19355 0
M  V30 8357 H 805.89 2.45693 -3.35819 0
M  V30 8358 H 804.766 3.58887 -4.15321 0
M  V30 8359 H 805.027 3.70003 -2.41971 0
M  V30 8360 N 804.086 1.46499 0.581025 0
M  V30 8361 C 805.502 1.31491 0.904563 0
M  V30 8362 C 805.702 0.287598 1.99437 0
M  V30 8363 O 804.758 -0.309247 2.50599 0
M  V30 8364 C 806.071 2.70163 1.32032 0
M  V30 8365 C 807.619 2.78266 1.43308 0
M  V30 8366 C 808.094 4.17524 1.8825 0
M  V30 8367 N 809.585 4.19949 1.9544 0
M  V30 8368 C 810.32 5.24594 2.31493 0
M  V30 8369 N 809.816 6.39564 2.66326 0
M  V30 8370 N 811.609 5.11961 2.32062 0
M  V30 8371 H 803.76 2.11946 -0.138856 0
M  V30 8372 H 806.023 0.948 0.000548528 0
M  V30 8373 H 805.729 3.46655 0.593554 0
M  V30 8374 H 805.603 3.00379 2.2815 0
M  V30 8375 H 807.99 2.02061 2.15071 0
M  V30 8376 H 808.071 2.51732 0.45438 0
M  V30 8377 H 807.715 4.94225 1.17065 0
M  V30 8378 H 807.645 4.41466 2.87081 0
M  V30 8379 H 810.136 3.36996 1.71004 0
M  V30 8380 H 810.449 7.15187 2.92793 0
M  V30 8381 H 808.794 6.42923 2.6396 0
M  V30 8382 H 811.985 4.21177 2.04272 0
M  V30 8383 H 812.158 5.93626 2.5983 0
M  V30 8384 N 805.565 -0.825799 1.34232 0
M  V30 8385 C 806.793 -1.61363 1.29497 0
M  V30 8386 C 807.208 -1.88341 -0.131536 0
M  V30 8387 O 806.565 -1.47279 -1.07773 0
M  V30 8388 C 806.616 -2.95623 2.08061 0
M  V30 8389 O 806.337 -2.69824 3.45147 0
M  V30 8390 C 807.838 -3.90032 2.10688 0
M  V30 8391 H 805.058 -0.501676 0.445603 0
M  V30 8392 H 807.602 -1.02767 1.76803 0
M  V30 8393 H 805.757 -3.50785 1.64404 0
M  V30 8394 H 806.171 -3.55412 3.85723 0
M  V30 8395 H 807.645 -4.81411 2.70087 0
M  V30 8396 H 808.122 -4.25188 1.10052 0
M  V30 8397 H 808.728 -3.40807 2.54422 0
M  V30 8398 N 807.043 -1.17915 -1.04565 0
M  V30 8399 C 808.289 -0.972863 -1.77942 0
M  V30 8400 C 808.622 0.496753 -1.87739 0
M  V30 8401 O 807.897 1.3688 -1.38181 0
M  V30 8402 C 808.18 -1.62227 -3.21488 0
M  V30 8403 C 808.033 -3.16441 -3.19664 0
M  V30 8404 C 809.352 -1.33137 -4.19479 0
M  V30 8405 H 806.471 -0.354843 -0.645953 0
M  V30 8406 H 809.113 -1.45508 -1.22178 0
M  V30 8407 H 807.263 -1.21224 -3.69103 0
M  V30 8408 H 808.935 -3.66544 -2.80077 0
M  V30 8409 H 807.178 -3.48863 -2.57832 0
M  V30 8410 H 807.849 -3.57012 -4.21006 0
M  V30 8411 H 810.325 -1.68654 -3.80388 0
M  V30 8412 H 809.201 -1.81151 -5.18146 0
M  V30 8413 H 809.462 -0.253319 -4.41374 0
M  V30 8414 N 808.521 1.23394 -0.980386 0
M  V30 8415 C 809.749 1.95844 -0.667286 0
M  V30 8416 C 810.164 1.72574 0.765735 0
M  V30 8417 O 809.521 1.01715 1.51526 0
M  V30 8418 C 809.572 3.48844 -0.948151 0
M  V30 8419 O 809.293 3.71325 -2.32485 0
M  V30 8420 C 810.794 4.38494 -0.651002 0
M  V30 8421 H 808.014 0.623535 -0.247882 0
M  V30 8422 H 810.558 1.56885 -1.31176 0
M  V30 8423 H 808.713 3.85819 -0.349681 0
M  V30 8424 H 809.127 4.65619 -2.41452 0
M  V30 8425 H 810.601 5.44648 -0.897887 0
M  V30 8426 H 811.078 4.37236 0.414922 0
M  V30 8427 H 811.684 4.07127 -1.22995 0
M  V30 8428 N 809.999 0.752036 1.385 0
M  V30 8429 C 811.247 0.306895 1.99756 0
M  V30 8430 C 811.568 -1.11478 1.59992 0
M  V30 8431 O 810.838 -1.76206 0.856045 0
M  V30 8432 H 809.418 0.11048 0.738785 0
M  V30 8433 H 812.08 0.965785 1.69289 0
M  V30 8434 H 811.176 0.368797 3.09913 0
M  V30 8435 N 811.477 -1.49425 0.500989 0
M  V30 8436 C 812.44 -2.27646 -0.266416 0
M  V30 8437 C 813.44 -1.3366 -0.893961 0
M  V30 8438 O 814.63 -1.5682 -0.758495 0
M  V30 8439 C 811.762 -3.11618 -1.38227 0
M  V30 8440 H 812.955 -2.96945 0.419973 0
M  V30 8441 H 810.508 -1.5419 0.255954 0
M  V30 8442 H 811.243 -2.46885 -2.10281 0
M  V30 8443 H 811.028 -3.80721 -0.937746 0
M  V30 8444 H 812.518 -3.70698 -1.92283 0
M  V30 8445 N 812.955 -0.234822 -1.55841 0
M  V30 8446 C 814.203 0.392483 -1.98252 0
M  V30 8447 C 814.524 1.59344 -1.12404 0
M  V30 8448 O 813.794 1.94834 -0.204055 0
M  V30 8449 H 812.374 0.147999 -0.732192 0
M  V30 8450 H 815.036 -0.330804 -1.92072 0
M  V30 8451 H 814.132 0.709829 -3.03921 0
M  V30 8452 N 814.433 1.57553 0.0384317 0
M  V30 8453 C 815.343 2.09333 1.0591 0
M  V30 8454 C 816.359 1.0299 1.40247 0
M  V30 8455 O 817.535 1.34669 1.49754 0
M  V30 8456 C 814.6 2.55468 2.34386 0
M  V30 8457 C 813.661 3.76254 2.06716 0
M  V30 8458 C 812.894 4.20179 3.29067 0
M  V30 8459 O 813.117 3.637 4.39407 0
M  V30 8460 O 812.051 5.12697 3.15317 0
M  V30 8461 H 815.877 2.96683 0.649087 0
M  V30 8462 H 813.462 1.47211 0.254802 0
M  V30 8463 H 815.344 2.85514 3.09935 0
M  V30 8464 H 814.019 1.71234 2.74701 0
M  V30 8465 H 812.926 3.51241 1.28766 0
M  V30 8466 H 814.259 4.61443 1.71263 0
M  V30 8467 N 815.911 -0.310526 1.54511 0
M  V30 8468 C 817.327 -0.655637 1.45511 0
M  V30 8469 C 817.527 -1.91114 0.638564 0
M  V30 8470 O 816.583 -2.52098 0.142497 0
M  V30 8471 C 817.896 -0.817501 2.89374 0
M  V30 8472 C 819.444 -0.914003 2.99358 0
M  V30 8473 C 819.919 -1.10794 4.44397 0
M  V30 8474 N 821.41 -1.17437 4.48066 0
M  V30 8475 C 822.145 -1.34255 5.57461 0
M  V30 8476 N 821.641 -1.48032 6.768 0
M  V30 8477 N 823.434 -1.37067 5.45132 0
M  V30 8478 H 815.585 0.514506 2.06074 0
M  V30 8479 H 817.848 0.168478 0.932909 0
M  V30 8480 H 817.554 0.034003 3.51684 0
M  V30 8481 H 817.428 -1.7094 3.36243 0
M  V30 8482 H 819.815 -1.756 2.37168 0
M  V30 8483 H 819.896 0.00170958 2.558 0
M  V30 8484 H 819.54 -0.270743 5.07178 0
M  V30 8485 H 819.47 -2.03773 4.85576 0
M  V30 8486 H 821.961 -1.08181 3.62084 0
M  V30 8487 H 822.274 -1.60593 7.5593 0
M  V30 8488 H 820.619 -1.45105 6.79683 0
M  V30 8489 H 823.81 -1.25909 4.50849 0
M  V30 8490 H 823.983 -1.49831 6.3044 0
M  V30 8491 N 817.389 -1.46805 -0.573248 0
M  V30 8492 C 818.635 -1.5283 -1.33307 0
M  V30 8493 C 818.968 -0.183287 -1.93333 0
M  V30 8494 O 818.243 0.806354 -1.76998 0
M  V30 8495 C 818.526 -2.63414 -2.45531 0
M  V30 8496 C 818.379 -4.07478 -1.90478 0
M  V30 8497 C 819.698 -2.70014 -3.47535 0
M  V30 8498 H 816.817 -0.556371 -0.483343 0
M  V30 8499 H 819.459 -1.78787 -0.643066 0
M  V30 8500 H 817.609 -2.41412 -3.04389 0
M  V30 8501 H 819.281 -4.40795 -1.36004 0
M  V30 8502 H 817.524 -4.16511 -1.21248 0
M  V30 8503 H 818.195 -4.80598 -2.71531 0
M  V30 8504 H 820.671 -2.89817 -2.98572 0
M  V30 8505 H 819.547 -3.49192 -4.23504 0
M  V30 8506 H 819.808 -1.76436 -4.05367 0
M  V30 8507 N 818.867 0.818669 -1.34668 0
M  V30 8508 C 819.797 1.94468 -1.29245 0
M  V30 8509 C 820.778 1.69257 -0.169101 0
M  V30 8510 O 821.963 1.90794 -0.362143 0
M  V30 8511 C 819.093 3.31001 -1.05145 0
M  V30 8512 C 818.047 3.70663 -2.13992 0
M  V30 8513 C 817.373 5.05226 -1.75074 0
M  V30 8514 C 818.673 3.82312 -3.55858 0
M  V30 8515 H 820.367 1.99263 -2.2346 0
M  V30 8516 H 817.913 0.957304 -1.07572 0
M  V30 8517 H 819.866 4.09364 -0.999949 0
M  V30 8518 H 818.59 3.26517 -0.0737312 0
M  V30 8519 H 817.249 2.94578 -2.18219 0
M  V30 8520 H 816.897 4.97233 -0.759518 0
M  V30 8521 H 816.597 5.32734 -2.47928 0
M  V30 8522 H 818.121 5.86042 -1.71427 0
M  V30 8523 H 819.535 4.50935 -3.5402 0
M  V30 8524 H 817.932 4.21278 -4.2737 0
M  V30 8525 H 819.002 2.84193 -3.9289 0
M  V30 8526 N 820.346 1.18468 1.03938 0
M  V30 8527 C 821.276 0.936389 2.13902 0
M  V30 8528 C 822.257 -0.126381 1.6963 0
M  V30 8529 O 823.442 0.0264757 1.94182 0
M  V30 8530 C 820.572 0.462729 3.44204 0
M  V30 8531 C 819.526 1.46613 4.02105 0
M  V30 8532 C 818.852 0.84994 5.27902 0
M  V30 8533 C 820.152 2.84323 4.3813 0
M  V30 8534 H 821.846 1.85602 2.3493 0
M  V30 8535 H 819.392 0.893806 1.12903 0
M  V30 8536 H 821.345 0.276382 4.20493 0
M  V30 8537 H 820.069 -0.492477 3.22866 0
M  V30 8538 H 818.728 1.63944 3.27899 0
M  V30 8539 H 818.376 -0.112493 5.02874 0
M  V30 8540 H 818.076 1.51988 5.67603 0
M  V30 8541 H 819.6 0.674152 6.06867 0
M  V30 8542 H 821.014 2.70636 5.054 0
M  V30 8543 H 819.411 3.48012 4.88884 0
M  V30 8544 H 820.481 3.37776 3.47901 0
M  V30 8545 N 821.824 -1.22873 0.986916 0
M  V30 8546 C 823.07 -1.92047 0.670042 0
M  V30 8547 C 823.425 -1.75497 -0.788587 0
M  V30 8548 O 822.718 -1.10934 -1.56218 0
M  V30 8549 C 822.912 -3.43014 1.00379 0
M  V30 8550 C 822.741 -3.74251 2.49332 0
M  V30 8551 C 821.511 -3.94589 3.15638 0
M  V30 8552 C 823.709 -3.79208 3.47428 0
M  V30 8553 N 821.691 -4.13086 4.54129 0
M  V30 8554 C 823.062 -4.02775 4.71352 0
M  V30 8555 C 825.117 -3.62029 3.41818 0
M  V30 8556 C 823.82 -4.10946 5.90352 0
M  V30 8557 C 825.846 -3.71457 4.60189 0
M  V30 8558 C 825.208 -3.95468 5.82911 0
M  V30 8559 H 821.307 -0.723668 0.29636 0
M  V30 8560 H 823.891 -1.47946 1.26571 0
M  V30 8561 H 822.062 -3.85936 0.436762 0
M  V30 8562 H 823.794 -3.99551 0.643522 0
M  V30 8563 H 820.549 -3.91762 2.66119 0
M  V30 8564 H 820.973 -4.26275 5.25945 0
M  V30 8565 H 825.615 -3.42457 2.47958 0
M  V30 8566 H 823.333 -4.29324 6.84621 0
M  V30 8567 H 826.919 -3.59511 4.57431 0
M  V30 8568 H 825.799 -4.02584 6.72975 0
M  V30 8569 N 823.302 -0.75937 -1.38099 0
M  V30 8570 C 824.25 -0.124954 -2.32264 0
M  V30 8571 C 825.244 0.698863 -1.54312 0
M  V30 8572 O 826.45 0.597312 -1.698 0
M  V30 8573 H 822.825 -0.0216142 -0.751689 0
M  V30 8574 H 824.796 -0.935115 -2.83369 0
M  V30 8575 C 823.545 0.749463 -3.39527 0
M  V30 8576 H 822.868 0.124932 -3.99605 0
M  V30 8577 H 824.308 1.16055 -4.07808 0
M  V30 8578 C 822.767 1.89464 -2.78577 0
M  V30 8579 O 823.297 2.98923 -2.68343 0
M  V30 8580 N 821.503 1.69145 -2.36301 0
M  V30 8581 H 821.05 0.801157 -2.44825 0
M  V30 8582 H 821.008 2.45936 -1.95864 0
M  V30 8583 N 824.78 1.49157 -0.508906 0
M  V30 8584 C 825.71 2.32109 0.254469 0
M  V30 8585 C 826.691 1.40754 0.955111 0
M  V30 8586 O 827.876 1.69658 0.944983 0
M  V30 8587 C 825.006 3.21458 1.3146 0
M  V30 8588 C 823.96 4.2167 0.733368 0
M  V30 8589 C 823.286 5.00009 1.8946 0
M  V30 8590 C 824.586 5.21544 -0.280875 0
M  V30 8591 H 826.28 2.9618 -0.43795 0
M  V30 8592 H 823.826 1.4243 -0.212062 0
M  V30 8593 H 825.779 3.78305 1.85643 0
M  V30 8594 H 824.503 2.55346 2.03632 0
M  V30 8595 H 823.162 3.65979 0.213231 0
M  V30 8596 H 822.81 4.30338 2.60419 0
M  V30 8597 H 822.51 5.67821 1.51173 0
M  V30 8598 H 824.034 5.59702 2.44061 0
M  V30 8599 H 825.448 5.73039 0.173095 0
M  V30 8600 H 823.845 5.97291 -0.580006 0
M  V30 8601 H 824.915 4.69969 -1.19404 0
M  V30 8602 N 826.258 0.243083 1.55714 0
M  V30 8603 C 827.506 -0.381964 1.98458 0
M  V30 8604 C 827.827 -1.58745 1.13247 0
M  V30 8605 O 827.097 -1.94723 0.214384 0
M  V30 8606 H 825.677 -0.144114 0.732967 0
M  V30 8607 H 828.339 0.340985 1.91894 0
M  V30 8608 H 827.435 -0.693702 3.04293 0
M  V30 8609 N 827.736 -1.57571 -0.0300757 0
M  V30 8610 C 828.668 -2.0329 -1.05857 0
M  V30 8611 C 829.681 -0.945543 -1.32527 0
M  V30 8612 O 830.87 -1.22287 -1.30032 0
M  V30 8613 C 827.97 -2.39234 -2.40042 0
M  V30 8614 C 827.143 -3.70337 -2.32743 0
M  V30 8615 C 826.202 -3.93482 -3.49369 0
M  V30 8616 O 825.228 -4.64551 -3.28909 0
M  V30 8617 N 826.43 -3.39042 -4.71201 0
M  V30 8618 H 829.195 -2.9214 -0.668897 0
M  V30 8619 H 826.756 -1.60425 -0.218038 0
M  V30 8620 H 828.748 -2.51856 -3.16782 0
M  V30 8621 H 827.318 -1.5606 -2.70858 0
M  V30 8622 H 826.538 -3.68079 -1.41109 0
M  V30 8623 H 827.826 -4.56343 -2.25007 0
M  V30 8624 H 827.224 -2.81434 -4.90725 0
M  V30 8625 H 825.781 -3.57045 -5.45309 0
M  V30 8626 N 829.214 0.302327 -1.54673 0
M  V30 8627 C 830.491 1.05721 -1.64567 0
M  V30 8628 C 830.871 2.0526 -0.493108 0
M  V30 8629 O 830.219 2.22729 0.510315 0
M  V30 8630 C 830.429 1.74025 -3.02517 0
M  V30 8631 C 831.777 2.26271 -3.59286 0
M  V30 8632 O 832.801 1.8406 -3.0496 0
M  V30 8633 O 831.66 3.0361 -4.54404 0
M  V30 8634 H 828.754 0.488577 -0.667249 0
M  V30 8635 H 831.3 0.300521 -1.67018 0
M  V30 8636 H 830.072 1.0174 -3.77842 0
M  V30 8637 H 829.695 2.56454 -3.03838 0
M  V30 8638 N 830.692 1.47107 0.565454 0
M  V30 8639 C 831.92 1.56909 1.3486 0
M  V30 8640 C 832.335 0.216312 1.87557 0
M  V30 8641 O 831.692 -0.789168 1.64555 0
M  V30 8642 C 831.743 2.58776 2.52423 0
M  V30 8643 O 831.464 3.888 2.01906 0
M  V30 8644 C 832.965 2.78683 3.44747 0
M  V30 8645 H 830.185 0.530096 0.411387 0
M  V30 8646 H 832.729 1.92658 0.685782 0
M  V30 8647 H 830.884 2.25983 3.1466 0
M  V30 8648 H 831.298 4.44393 2.78595 0
M  V30 8649 H 832.772 3.53842 4.23674 0
M  V30 8650 H 833.249 1.86208 3.97773 0
M  V30 8651 H 833.855 3.12641 2.88333 0
M  V30 8652 N 832.17 -0.811516 1.35101 0
M  V30 8653 C 833.586 -1.10634 1.15031 0
M  V30 8654 C 833.786 -2.01459 -0.0405379 0
M  V30 8655 O 832.842 -2.42235 -0.712635 0
M  V30 8656 C 834.155 -1.74207 2.45097 0
M  V30 8657 C 835.703 -1.8665 2.51258 0
M  V30 8658 C 836.178 -2.53638 3.81355 0
M  V30 8659 N 837.669 -2.61128 3.82579 0
M  V30 8660 C 838.404 -3.13717 4.79968 0
M  V30 8661 N 837.9 -3.66782 5.87744 0
M  V30 8662 N 839.693 -3.12224 4.67411 0
M  V30 8663 H 831.844 -0.207641 2.11383 0
M  V30 8664 H 834.107 -0.154697 0.935293 0
M  V30 8665 H 833.813 -1.14936 3.32389 0
M  V30 8666 H 833.687 -2.73958 2.59281 0
M  V30 8667 H 836.074 -2.45066 1.64398 0
M  V30 8668 H 836.155 -0.857678 2.40993 0
M  V30 8669 H 835.799 -1.95873 4.68611 0
M  V30 8670 H 835.729 -3.55047 3.88907 0
M  V30 8671 H 838.22 -2.23527 3.04703 0
M  V30 8672 H 838.533 -4.05194 6.58056 0
M  V30 8673 H 836.878 -3.64994 5.91443 0
M  V30 8674 H 840.069 -2.70042 3.82354 0
M  V30 8675 H 840.242 -3.52903 5.43474 0
M  V30 8676 N 833.648 -1.19017 -1.03309 0
M  V30 8677 C 834.611 -0.926076 -2.09658 0
M  V30 8678 C 835.611 0.0917077 -1.60538 0
M  V30 8679 O 836.801 -0.142574 -1.73616 0
M  V30 8680 C 833.933 -0.390958 -3.38651 0
M  V30 8681 H 835.126 -1.86923 -2.3452 0
M  V30 8682 H 832.679 -1.00325 -1.19853 0
M  V30 8683 H 833.414 0.558446 -3.19456 0
M  V30 8684 H 833.199 -1.12474 -3.75622 0
M  V30 8685 H 834.689 -0.225131 -4.16993 0
M  V30 8686 N 835.127 1.22348 -0.993418 0
M  V30 8687 C 836.373 1.91393 -0.67056 0
M  V30 8688 C 836.706 1.77163 0.795428 0
M  V30 8689 O 835.981 1.14084 1.57528 0
M  V30 8690 C 836.264 3.43589 -1.0779 0
M  V30 8691 C 836.117 3.66867 -2.60248 0
M  V30 8692 C 837.436 4.35545 -0.631527 0
M  V30 8693 H 834.555 0.695057 -0.24508 0
M  V30 8694 H 837.197 1.44213 -1.23703 0
M  V30 8695 H 835.347 3.83903 -0.595902 0
M  V30 8696 H 837.019 3.35954 -3.16121 0
M  V30 8697 H 835.262 3.1113 -3.02293 0
M  V30 8698 H 835.933 4.73457 -2.838 0
M  V30 8699 H 838.409 4.0275 -1.04554 0
M  V30 8700 H 837.285 5.40707 -0.944831 0
M  V30 8701 H 837.546 4.39618 0.467779 0
M  V30 8702 N 836.605 0.766683 1.37694 0
M  V30 8703 C 837.568 0.155849 2.2867 0
M  V30 8704 C 838.568 -0.633509 1.47795 0
M  V30 8705 O 839.758 -0.457844 1.68076 0
M  V30 8706 C 836.89 -0.786965 3.31692 0
M  V30 8707 H 838.083 0.957748 2.84196 0
M  V30 8708 H 835.636 0.534554 1.46875 0
M  V30 8709 H 836.371 -1.61406 2.8128 0
M  V30 8710 H 836.156 -0.223182 3.91464 0
M  V30 8711 H 837.646 -1.20994 3.99688 0
M  V30 8712 N 838.083 -1.48885 0.516809 0
M  V30 8713 C 838.993 -2.33185 -0.257293 0
M  V30 8714 C 840.009 -1.4565 -0.951952 0
M  V30 8715 O 841.185 -1.78651 -0.929834 0
M  V30 8716 C 838.25 -3.21465 -1.29851 0
M  V30 8717 C 837.311 -4.24863 -0.615608 0
M  V30 8718 C 836.544 -5.08925 -1.60722 0
M  V30 8719 O 836.767 -4.9475 -2.83863 0
M  V30 8720 O 835.701 -5.90737 -1.15384 0
M  V30 8721 H 839.527 -3.00596 0.433131 0
M  V30 8722 H 837.112 -1.46792 0.277908 0
M  V30 8723 H 838.994 -3.76108 -1.90055 0
M  V30 8724 H 837.669 -2.5673 -1.97158 0
M  V30 8725 H 836.576 -3.74091 0.0265829 0
M  V30 8726 H 837.909 -4.92198 0.0152871 0
M  V30 8727 N 839.561 -0.251338 -1.55583 0
M  V30 8728 C 840.807 0.37272 -1.99346 0
M  V30 8729 C 841.14 1.57266 -1.13934 0
M  V30 8730 O 840.415 1.9343 -0.20377 0
M  V30 8731 C 840.698 0.778245 -3.5159 0
M  V30 8732 C 840.551 -0.427394 -4.47765 0
M  V30 8733 C 841.87 1.62358 -4.09057 0
M  V30 8734 H 838.989 0.134002 -0.724715 0
M  V30 8735 H 841.631 -0.353536 -1.86682 0
M  V30 8736 H 839.781 1.39704 -3.62512 0
M  V30 8737 H 841.453 -1.06586 -4.48818 0
M  V30 8738 H 839.696 -1.06972 -4.20404 0
M  V30 8739 H 840.367 -0.10025 -5.51909 0
M  V30 8740 H 842.843 1.1012 -4.01264 0
M  V30 8741 H 841.719 1.87617 -5.1584 0
M  V30 8742 H 841.98 2.59688 -3.57791 0
M  V30 8743 N 841.039 1.57585 0.0217189 0
M  V30 8744 C 841.986 2.07036 1.02004 0
M  V30 8745 C 842.956 0.96106 1.35473 0
M  V30 8746 O 844.141 1.23211 1.45684 0
M  V30 8747 C 841.281 2.56056 2.31364 0
M  V30 8748 C 840.394 3.80805 2.03989 0
M  V30 8749 C 839.529 4.18409 3.27272 0
M  V30 8750 C 838.568 5.36055 2.95486 0
M  V30 8751 N 837.705 5.69056 4.11242 0
M  V30 8752 H 842.545 2.92073 0.591396 0
M  V30 8753 H 840.082 1.44403 0.280384 0
M  V30 8754 H 842.04 2.82548 3.06957 0
M  V30 8755 H 840.67 1.73925 2.71937 0
M  V30 8756 H 839.722 3.61354 1.1886 0
M  V30 8757 H 841.034 4.66512 1.76546 0
M  V30 8758 H 840.188 4.46068 4.11228 0
M  V30 8759 H 838.927 3.31369 3.57835 0
M  V30 8760 H 837.932 5.08142 2.09933 0
M  V30 8761 H 839.157 6.24755 2.66193 0
M  V30 8762 H 837.103 4.84974 4.41742 0
M  V30 8763 H 837.02 6.49288 3.87247 0
M  V30 8764 H 838.288 6.01295 4.96049 0
M  V30 8765 N 842.517 -0.29412 1.54831 0
M  V30 8766 C 843.447 -1.36757 1.89261 0
M  V30 8767 C 844.428 -1.52564 0.752214 0
M  V30 8768 O 845.613 -1.65958 1.00855 0
M  V30 8769 C 842.743 -2.73066 2.14597 0
M  V30 8770 C 841.697 -2.72017 3.3044 0
M  V30 8771 C 841.023 -4.11679 3.4121 0
M  V30 8772 C 842.323 -2.33149 4.67375 0
M  V30 8773 H 844.017 -1.08191 2.79169 0
M  V30 8774 H 841.563 -0.519014 1.34321 0
M  V30 8775 H 843.516 -3.48255 2.37269 0
M  V30 8776 H 842.24 -3.03172 1.21467 0
M  V30 8777 H 840.899 -1.99285 3.07703 0
M  V30 8778 H 840.547 -4.38973 2.45584 0
M  V30 8779 H 840.247 -4.11877 4.19084 0
M  V30 8780 H 841.771 -4.88637 3.6615 0
M  V30 8781 H 843.185 -2.98054 4.89731 0
M  V30 8782 H 841.582 -2.44546 5.48012 0
M  V30 8783 H 842.652 -1.28275 4.67626 0
M  V30 8784 N 843.995 -1.47404 -0.557645 0
M  V30 8785 C 845.406 -1.47872 -1.13977 0
M  V30 8786 C 845.757 -0.233176 -1.94809 0
M  V30 8787 O 844.882 0.661945 -2.06027 0
M  V30 8788 C 845.477 -2.67926 -2.07368 0
M  V30 8789 C 844.036 -2.71354 -2.60852 0
M  V30 8790 C 843.183 -2.40967 -1.37223 0
M  V30 8791 H 846.134 -1.54921 -0.344268 0
M  V30 8792 H 846.155 -2.44871 -2.91236 0
M  V30 8793 H 845.667 -3.58562 -1.48509 0
M  V30 8794 H 843.768 -1.84855 -3.23511 0
M  V30 8795 H 843.881 -3.72032 -3.01876 0
M  V30 8796 H 842.245 -1.91541 -1.67882 0
M  V30 8797 H 843.028 -3.33811 -0.801583 0
M  V30 8798 N 845.473 0.80434 -1.35529 0
M  V30 8799 C 846.72 1.56154 -1.28927 0
M  V30 8800 C 847.048 1.94026 0.135682 0
M  V30 8801 O 846.303 1.61759 1.10148 0
M  V30 8802 C 846.602 2.85988 -2.14349 0
M  V30 8803 C 846.268 2.67323 -3.6311 0
M  V30 8804 C 844.93 2.61941 -4.03659 0
M  V30 8805 C 847.282 2.49699 -4.57493 0
M  V30 8806 C 844.61 2.3688 -5.36754 0
M  V30 8807 C 846.962 2.26168 -5.90788 0
M  V30 8808 C 845.626 2.19209 -6.30479 0
M  V30 8809 H 844.896 0.571407 -0.471779 0
M  V30 8810 H 847.543 0.929193 -1.67446 0
M  V30 8811 H 845.848 3.53612 -1.68718 0
M  V30 8812 H 847.545 3.43697 -2.06576 0
M  V30 8813 H 844.135 2.72361 -3.30934 0
M  V30 8814 H 848.319 2.52869 -4.27049 0
M  V30 8815 H 843.575 2.29964 -5.66504 0
M  V30 8816 H 847.749 2.11522 -6.63499 0
M  V30 8817 H 845.376 1.99553 -7.33541 0
M  V30 8818 N 846.951 1.19563 1.02676 0
M  V30 8819 C 848.179 1.02488 1.79732 0
M  V30 8820 C 848.594 -0.426302 1.83924 0
M  V30 8821 O 847.951 -1.29609 1.28483 0
M  V30 8822 C 848.002 1.58944 3.24683 0
M  V30 8823 O 847.723 2.98382 3.2078 0
M  V30 8824 C 849.224 1.46681 4.1833 0
M  V30 8825 H 846.444 0.361098 0.565552 0
M  V30 8826 H 848.988 1.58426 1.29311 0
M  V30 8827 H 847.143 1.0715 3.72287 0
M  V30 8828 H 847.557 3.24983 4.11687 0
M  V30 8829 H 849.031 1.90959 5.17918 0
M  V30 8830 H 849.508 0.417663 4.3721 0
M  V30 8831 H 850.114 1.97616 3.76601 0
M  V30 8832 N 848.429 -1.21819 0.999893 0
M  V30 8833 C 849.675 -1.91035 0.680701 0
M  V30 8834 C 850.008 -1.77582 -0.786021 0
M  V30 8835 O 849.283 -1.14917 -1.56921 0
M  V30 8836 C 849.566 -3.43013 1.0961 0
M  V30 8837 C 849.419 -3.65481 2.6219 0
M  V30 8838 C 850.738 -4.35204 0.654616 0
M  V30 8839 H 847.857 -0.693748 0.248763 0
M  V30 8840 H 850.499 -1.43555 1.24466 0
M  V30 8841 H 848.649 -3.83581 0.616253 0
M  V30 8842 H 850.321 -3.34273 3.17899 0
M  V30 8843 H 848.564 -3.09522 3.03938 0
M  V30 8844 H 849.235 -4.71945 2.86307 0
M  V30 8845 H 851.711 -4.0219 1.06688 0
M  V30 8846 H 850.587 -5.40198 0.973492 0
M  V30 8847 H 850.848 -4.3986 -0.444458 0
M  V30 8848 N 849.908 -0.773975 -1.37286 0
M  V30 8849 C 851.319 -0.404433 -1.82267 0
M  V30 8850 C 851.67 1.06971 -1.64474 0
M  V30 8851 O 850.795 1.82867 -1.15708 0
M  V30 8852 C 851.39 -0.727298 -3.30902 0
M  V30 8853 C 849.949 -0.410784 -3.74152 0
M  V30 8854 C 849.096 -0.969983 -2.59782 0
M  V30 8855 H 852.047 -0.968437 -1.25726 0
M  V30 8856 H 852.068 -0.0127575 -3.80498 0
M  V30 8857 H 851.58 -1.80026 -3.4382 0
M  V30 8858 H 849.681 0.65477 -3.66802 0
M  V30 8859 H 849.794 -0.920592 -4.70172 0
M  V30 8860 H 848.158 -0.394094 -2.51633 0
M  V30 8861 H 848.941 -2.04839 -2.75492 0
M  V30 8862 N 851.386 1.48609 -0.524698 0
M  V30 8863 C 852.802 1.58557 -0.182199 0
M  V30 8864 C 853.002 1.52732 1.31435 0
M  V30 8865 O 852.058 1.41362 2.0922 0
M  V30 8866 C 853.371 2.90406 -0.78004 0
M  V30 8867 C 854.919 3.03924 -0.748293 0
M  V30 8868 C 855.394 4.38427 -1.32462 0
M  V30 8869 N 856.885 4.4498 -1.28635 0
M  V30 8870 C 857.62 5.47551 -1.70223 0
M  V30 8871 N 857.116 6.57103 -2.19515 0
M  V30 8872 N 858.909 5.38402 -1.61493 0
M  V30 8873 H 851.06 1.50638 -1.4974 0
M  V30 8874 H 853.323 0.714952 -0.622533 0
M  V30 8875 H 853.029 3.00308 -1.83052 0
M  V30 8876 H 852.903 3.76343 -0.254075 0
M  V30 8877 H 855.29 2.93638 0.293407 0
M  V30 8878 H 855.371 2.19611 -1.31167 0
M  V30 8879 H 855.015 4.49466 -2.36522 0
M  V30 8880 H 854.945 5.21418 -0.736967 0
M  V30 8881 H 857.436 3.66393 -0.92545 0
M  V30 8882 H 857.749 7.31499 -2.49257 0
M  V30 8883 H 856.094 6.58081 -2.23506 0
M  V30 8884 H 859.285 4.5171 -1.22785 0
M  V30 8885 H 859.458 6.18208 -1.94225 0
M  V30 8886 N 852.864 0.259585 1.55447 0
M  V30 8887 C 854.28 -0.094961 1.59317 0
M  V30 8888 C 854.48 -1.55884 1.2768 0
M  V30 8889 O 853.536 -2.30528 1.0302 0
M  V30 8890 C 854.849 0.265669 2.99524 0
M  V30 8891 C 856.397 0.211007 3.12288 0
M  V30 8892 C 856.872 0.545851 4.54736 0
M  V30 8893 N 858.363 0.496823 4.60528 0
M  V30 8894 C 859.098 0.728909 5.68748 0
M  V30 8895 N 858.594 1.02479 6.85179 0
M  V30 8896 N 860.387 0.658756 5.58226 0
M  V30 8897 H 852.538 1.2141 1.7428 0
M  V30 8898 H 854.801 0.489404 0.811904 0
M  V30 8899 H 854.507 1.28316 3.27457 0
M  V30 8900 H 854.381 -0.401089 3.75061 0
M  V30 8901 H 856.768 -0.797172 2.84129 0
M  V30 8902 H 856.849 0.911799 2.38998 0
M  V30 8903 H 856.493 1.55164 4.83618 0
M  V30 8904 H 856.423 -0.17656 5.26304 0
M  V30 8905 H 858.914 0.277376 3.76881 0
M  V30 8906 H 859.227 1.18897 7.63599 0
M  V30 8907 H 857.572 1.0624 6.86832 0
M  V30 8908 H 860.763 0.427553 4.66143 0
M  V30 8909 H 860.936 0.84302 6.42493 0
M  V30 8910 N 854.342 -1.57594 -0.0133615 0
M  V30 8911 C 855.272 -2.10611 -1.00823 0
M  V30 8912 C 856.253 -1.01217 -1.36708 0
M  V30 8913 O 857.438 -1.28827 -1.45318 0
M  V30 8914 C 854.568 -2.59844 -2.30431 0
M  V30 8915 C 853.522 -3.73644 -2.08745 0
M  V30 8916 C 852.848 -4.09141 -3.4425 0
M  V30 8917 C 854.148 -5.01454 -1.46086 0
M  V30 8918 H 855.842 -2.93985 -0.566849 0
M  V30 8919 H 853.388 -1.41423 -0.271219 0
M  V30 8920 H 855.341 -2.95557 -3.00373 0
M  V30 8921 H 854.065 -1.73573 -2.76658 0
M  V30 8922 H 852.724 -3.38303 -1.41232 0
M  V30 8923 H 852.372 -3.19914 -3.88155 0
M  V30 8924 H 852.072 -4.85802 -3.3056 0
M  V30 8925 H 853.596 -4.47402 -4.15528 0
M  V30 8926 H 855.01 -5.35024 -2.05966 0
M  V30 8927 H 853.407 -5.82832 -1.42924 0
M  V30 8928 H 854.477 -4.83003 -0.428471 0
M  V30 8929 N 855.82 0.285905 -1.54985 0
M  V30 8930 C 856.75 1.35752 -1.89983 0
M  V30 8931 C 857.731 1.52163 -0.760295 0
M  V30 8932 O 858.916 1.65421 -1.01733 0
M  V30 8933 C 856.046 2.71925 -2.16042 0
M  V30 8934 C 855 2.70261 -3.31878 0
M  V30 8935 C 854.326 4.09864 -3.43388 0
M  V30 8936 C 855.626 2.30667 -4.68604 0
M  V30 8937 H 857.32 1.06709 -2.79738 0
M  V30 8938 H 854.866 0.511884 -1.34595 0
M  V30 8939 H 856.819 3.46992 -2.39113 0
M  V30 8940 H 855.543 3.02523 -1.23074 0
M  V30 8941 H 854.202 1.97651 -3.08755 0
M  V30 8942 H 853.85 4.37664 -2.47909 0
M  V30 8943 H 853.55 4.09648 -4.21262 0
M  V30 8944 H 855.074 4.86689 -3.68736 0
M  V30 8945 H 856.488 2.95453 -4.91305 0
M  V30 8946 H 854.885 2.41637 -5.49301 0
M  V30 8947 H 855.955 1.25793 -4.68299 0
M  V30 8948 N 857.298 1.47698 0.54982 0
M  V30 8949 C 858.228 1.63622 1.66583 0
M  V30 8950 C 859.209 0.485477 1.63025 0
M  V30 8951 O 860.394 0.715692 1.80531 0
M  V30 8952 C 857.524 1.65721 3.05211 0
M  V30 8953 C 856.478 2.80097 3.2362 0
M  V30 8954 C 855.804 2.67272 4.63109 0
M  V30 8955 C 857.104 4.21612 3.08286 0
M  V30 8956 H 858.798 2.57049 1.53512 0
M  V30 8957 H 856.344 1.23705 0.737099 0
M  V30 8958 H 858.297 1.75451 3.83138 0
M  V30 8959 H 857.021 0.688593 3.19258 0
M  V30 8960 H 855.68 2.69889 2.48104 0
M  V30 8961 H 855.328 1.68422 4.73965 0
M  V30 8962 H 855.028 3.44008 4.76374 0
M  V30 8963 H 856.552 2.78942 5.43161 0
M  V30 8964 H 857.966 4.32758 3.76024 0
M  V30 8965 H 856.363 4.99193 3.33057 0
M  V30 8966 H 857.433 4.39462 2.04942 0
M  V30 8967 N 858.776 -0.797141 1.35954 0
M  V30 8968 C 859.726 -1.89899 1.26184 0
M  V30 8969 C 860.71 -1.60152 0.155007 0
M  V30 8970 O 861.902 -1.72715 0.387108 0
M  V30 8971 C 859.031 -3.2699 1.04559 0
M  V30 8972 C 858.117 -3.62772 2.19675 0
M  V30 8973 N 858.508 -3.6992 3.44953 0
M  V30 8974 C 856.806 -3.92786 2.1127 0
M  V30 8975 C 857.507 -4.01718 4.20711 0
M  V30 8976 N 856.483 -4.16298 3.49567 0
M  V30 8977 H 860.285 -1.9364 2.2109 0
M  V30 8978 H 857.799 -0.992246 1.28562 0
M  V30 8979 H 859.796 -4.0578 0.956474 0
M  V30 8980 H 858.456 -3.24529 0.105467 0
M  V30 8981 H 859.467 -3.52759 3.79185 0
M  V30 8982 H 856.144 -3.98295 1.25168 0
M  V30 8983 H 857.534 -4.14237 5.29016 0
M  V30 8984 N 860.254 -1.20106 -1.0204 0
M  V30 8985 C 861.482 -1.0344 -1.79186 0
M  V30 8986 C 861.897 0.416542 -1.84148 0
M  V30 8987 O 861.254 1.28925 -1.29168 0
M  V30 8988 C 861.305 -1.60663 -3.23836 0
M  V30 8989 O 861.026 -3.00079 -3.19193 0
M  V30 8990 C 862.527 -1.48897 -4.17546 0
M  V30 8991 H 859.747 -0.364093 -0.563629 0
M  V30 8992 H 862.291 -1.5911 -1.28469 0
M  V30 8993 H 860.446 -1.09122 -3.71714 0
M  V30 8994 H 860.86 -3.27162 -4.09958 0
M  V30 8995 H 862.334 -1.93703 -5.16898 0
M  V30 8996 H 862.811 -0.440843 -4.36982 0
M  V30 8997 H 863.417 -1.9961 -3.75547 0
M  V30 8998 N 861.732 1.21287 -1.00634 0
M  V30 8999 C 862.642 2.27388 -0.577226 0
M  V30 9000 C 863.658 1.69791 0.380399 0
M  V30 9001 O 864.834 1.99918 0.2439 0
M  V30 9002 C 861.899 3.46588 0.0880532 0
M  V30 9003 C 860.96 4.19453 -0.914222 0
M  V30 9004 C 860.193 5.32962 -0.280596 0
M  V30 9005 O 860.416 5.62895 0.922265 0
M  V30 9006 O 859.35 5.93666 -0.992196 0
M  V30 9007 H 863.176 2.66289 -1.46028 0
M  V30 9008 H 860.761 1.2771 -0.775283 0
M  V30 9009 H 862.643 4.18881 0.460094 0
M  V30 9010 H 861.318 3.09585 0.945461 0
M  V30 9011 H 860.225 3.49376 -1.33744 0
M  V30 9012 H 861.558 4.6037 -1.74126 0
M  V30 9013 N 863.21 0.781244 1.36873 0
M  V30 9014 C 864.458 0.349198 1.9906 0
M  V30 9015 C 864.779 -1.0806 1.62321 0
M  V30 9016 O 864.049 -1.74351 0.893229 0
M  V30 9017 H 862.629 0.126126 0.736275 0
M  V30 9018 H 865.291 1.00148 1.67202 0
M  V30 9019 H 864.387 0.434451 3.09061 0
M  V30 9020 N 864.689 -1.48329 0.532571 0
M  V30 9021 C 866.105 -1.58458 0.190605 0
M  V30 9022 C 866.305 -1.53427 -1.30623 0
M  V30 9023 O 865.361 -1.4247 -2.08467 0
M  V30 9024 C 866.674 -2.89989 0.79543 0
M  V30 9025 C 868.222 -3.03523 0.7644 0
M  V30 9026 C 868.697 -4.37718 1.34785 0
M  V30 9027 N 870.188 -4.44292 1.30993 0
M  V30 9028 C 870.923 -5.4664 1.73124 0
M  V30 9029 N 870.419 -6.5593 2.22997 0
M  V30 9030 N 872.212 -5.37538 1.64346 0
M  V30 9031 H 864.363 -1.49842 1.50537 0
M  V30 9032 H 866.626 -0.71164 0.626316 0
M  V30 9033 H 866.332 -2.99333 1.84642 0
M  V30 9034 H 866.206 -3.76203 0.27403 0
M  V30 9035 H 868.593 -2.93789 -0.277831 0
M  V30 9036 H 868.674 -2.18912 1.3233 0
M  V30 9037 H 868.318 -4.48206 2.38902 0
M  V30 9038 H 868.248 -5.21019 0.764609 0
M  V30 9039 H 870.739 -3.65897 0.944868 0
M  V30 9040 H 871.052 -7.30167 2.53133 0
M  V30 9041 H 869.397 -6.56886 2.26992 0
M  V30 9042 H 872.588 -4.51052 1.25178 0
M  V30 9043 H 872.761 -6.17169 1.97501 0
M  V30 9044 N 866.167 -0.267825 -1.55308 0
M  V30 9045 C 867.077 0.633055 -2.25897 0
M  V30 9046 C 868.093 1.17613 -1.28231 0
M  V30 9047 O 869.269 1.20797 -1.61153 0
M  V30 9048 C 866.334 1.80397 -2.96071 0
M  V30 9049 C 865.395 1.29829 -4.09198 0
M  V30 9050 C 864.628 2.4134 -4.76016 0
M  V30 9051 O 864.851 3.60537 -4.42006 0
M  V30 9052 O 863.785 2.09909 -5.64111 0
M  V30 9053 H 867.611 0.0614381 -3.03638 0
M  V30 9054 H 865.196 -0.0355072 -1.49358 0
M  V30 9055 H 867.078 2.48685 -3.40197 0
M  V30 9056 H 865.753 2.36281 -2.21253 0
M  V30 9057 H 864.66 0.582086 -3.69544 0
M  V30 9058 H 865.993 0.785288 -4.85895 0
M  V30 9059 N 867.645 1.57599 0.00500368 0
M  V30 9060 C 868.922 1.81561 0.727654 0
M  V30 9061 C 869.302 0.871604 1.92266 0
M  V30 9062 O 868.65 -0.0808232 2.28357 0
M  V30 9063 C 868.86 3.29922 1.13809 0
M  V30 9064 C 870.208 3.95531 1.54403 0
M  V30 9065 O 871.232 3.34215 1.23202 0
M  V30 9066 O 870.091 5.03535 2.12402 0
M  V30 9067 H 867.185 0.747462 0.353878 0
M  V30 9068 H 869.731 1.69688 -0.0200667 0
M  V30 9069 H 868.503 3.90253 0.286078 0
M  V30 9070 H 868.126 3.46775 1.94507 0
M  V30 9071 N 869.123 -0.277682 1.55134 0
M  V30 9072 C 870.053 -1.34742 1.90701 0
M  V30 9073 C 871.034 -1.51757 0.768354 0
M  V30 9074 O 872.219 -1.64879 1.02609 0
M  V30 9075 C 869.349 -2.70775 2.17481 0
M  V30 9076 C 868.303 -2.68497 3.33307 0
M  V30 9077 C 867.629 -4.08037 3.45557 0
M  V30 9078 C 868.929 -2.28178 4.69821 0
M  V30 9079 H 870.623 -1.05224 2.803 0
M  V30 9080 H 868.169 -0.504738 1.34864 0
M  V30 9081 H 870.122 -3.45719 2.40949 0
M  V30 9082 H 868.846 -3.01867 1.24676 0
M  V30 9083 H 867.505 -1.9601 3.09799 0
M  V30 9084 H 867.153 -4.36344 2.50226 0
M  V30 9085 H 866.853 -4.07409 4.23429 0
M  V30 9086 H 868.377 -4.84726 3.71312 0
M  V30 9087 H 869.791 -2.92843 4.92865 0
M  V30 9088 H 868.188 -2.3872 5.50575 0
M  V30 9089 H 869.258 -1.23308 4.6896 0
M  V30 9090 N 870.601 -1.47988 -0.541979 0
M  V30 9091 C 871.829 -1.59034 -1.32347 0
M  V30 9092 C 872.244 -0.246123 -1.87189 0
M  V30 9093 O 871.601 0.762889 -1.6579 0
M  V30 9094 C 871.652 -2.62759 -2.48274 0
M  V30 9095 O 871.373 -3.91963 -1.95695 0
M  V30 9096 C 872.874 -2.84133 -3.4027 0
M  V30 9097 H 870.094 -0.536574 -0.402901 0
M  V30 9098 H 872.638 -1.93725 -0.655045 0
M  V30 9099 H 870.793 -2.3096 -3.11025 0
M  V30 9100 H 871.207 -4.48769 -2.7149 0
M  V30 9101 H 872.681 -3.60538 -4.17991 0
M  V30 9102 H 873.158 -1.92512 -3.9476 0
M  V30 9103 H 873.764 -3.17188 -2.83322 0
M  V30 9104 N 872.079 0.78992 -1.36375 0
M  V30 9105 C 873.009 1.91683 -1.33341 0
M  V30 9106 C 873.99 1.68861 -0.204965 0
M  V30 9107 O 875.175 1.89982 -0.402531 0
M  V30 9108 C 872.305 3.28696 -1.12143 0
M  V30 9109 C 871.259 3.66041 -2.21806 0
M  V30 9110 C 870.585 5.01399 -1.85751 0
M  V30 9111 C 871.885 3.74677 -3.63888 0
M  V30 9112 H 873.579 1.94478 -2.27637 0
M  V30 9113 H 871.125 0.934271 -1.09578 0
M  V30 9114 H 873.078 4.07151 -1.08656 0
M  V30 9115 H 871.802 3.26287 -0.142974 0
M  V30 9116 H 870.461 2.89883 -2.24418 0
M  V30 9117 H 870.109 4.9551 -0.864817 0
M  V30 9118 H 869.809 5.27355 -2.59173 0
M  V30 9119 H 871.333 5.82274 -1.83819 0
M  V30 9120 H 872.747 4.43324 -3.63506 0
M  V30 9121 H 871.144 4.12118 -4.3621 0
M  V30 9122 H 872.214 2.75795 -3.9883 0
M  V30 9123 N 873.557 1.20646 1.01402 0
M  V30 9124 C 874.805 1.01618 1.74695 0
M  V30 9125 C 875.126 -0.452438 1.89679 0
M  V30 9126 O 874.396 -1.32693 1.44116 0
M  V30 9127 H 872.976 0.373013 0.647202 0
M  V30 9128 H 875.638 1.518 1.22241 0
M  V30 9129 H 874.734 1.47666 2.74957 0
M  V30 9130 N 875.035 -1.20752 1.01276 0
M  V30 9131 C 875.998 -2.2162 0.584583 0
M  V30 9132 C 876.998 -1.57094 -0.343215 0
M  V30 9133 O 878.188 -1.73696 -0.132433 0
M  V30 9134 C 875.32 -3.40583 -0.146872 0
M  V30 9135 H 876.513 -2.61015 1.47686 0
M  V30 9136 H 874.066 -1.34148 0.802123 0
M  V30 9137 H 874.801 -3.06686 -1.05424 0
M  V30 9138 H 874.586 -3.88642 0.51958 0
M  V30 9139 H 876.076 -4.15339 -0.433924 0
M  V30 9140 N 876.513 -0.788492 -1.36457 0
M  V30 9141 C 877.761 -0.359749 -1.98872 0
M  V30 9142 C 878.082 1.07197 -1.62892 0
M  V30 9143 O 877.352 1.73875 -0.902463 0
M  V30 9144 H 875.932 -0.130029 -0.735596 0
M  V30 9145 H 878.594 -1.01033 -1.66668 0
M  V30 9146 H 877.69 -0.450835 -3.08827 0
M  V30 9147 N 877.991 1.48044 -0.54043 0
M  V30 9148 C 878.901 2.33565 0.220163 0
M  V30 9149 C 879.917 1.47146 0.928659 0
M  V30 9150 O 881.093 1.80107 0.901295 0
M  V30 9151 C 878.158 3.2349 1.2472 0
M  V30 9152 C 877.219 4.25789 0.547938 0
M  V30 9153 C 876.452 5.11417 1.52605 0
M  V30 9154 O 876.675 4.99204 2.75956 0
M  V30 9155 O 875.609 5.92498 1.05972 0
M  V30 9156 H 879.435 2.99868 -0.480898 0
M  V30 9157 H 877.02 1.46332 -0.301226 0
M  V30 9158 H 878.902 3.79084 1.84047 0
M  V30 9159 H 877.577 2.59835 1.93048 0
M  V30 9160 H 876.484 3.74001 -0.0860941 0
M  V30 9161 H 877.817 4.92111 -0.0935896 0
M  V30 9162 N 879.47 0.276058 1.55163 0
M  V30 9163 C 880.433 -0.597924 2.21263 0
M  V30 9164 C 881.433 -1.0806 1.19078 0
M  V30 9165 O 882.623 -0.980626 1.43977 0
M  V30 9166 C 879.755 -1.82503 2.87933 0
M  V30 9167 H 880.948 -0.0207769 2.99893 0
M  V30 9168 H 878.501 0.0266823 1.56277 0
M  V30 9169 H 879.236 -2.44266 2.13318 0
M  V30 9170 H 879.021 -1.48683 3.62816 0
M  V30 9171 H 880.511 -2.44651 3.38431 0
M  V30 9172 N 880.948 -1.576 0.00335426 0
M  V30 9173 C 882.194 -1.90996 -0.681799 0
M  V30 9174 C 882.527 -0.877643 -1.73237 0
M  V30 9175 O 881.802 0.103183 -1.94226 0
M  V30 9176 C 882.085 -3.34961 -1.32187 0
M  V30 9177 C 881.938 -4.48911 -0.28261 0
M  V30 9178 C 883.257 -3.78408 -2.24711 0
M  V30 9179 H 880.376 -0.694596 -0.246386 0
M  V30 9180 H 883.018 -1.89919 0.055336 0
M  V30 9181 H 881.168 -3.36008 -1.95014 0
M  V30 9182 H 882.84 -4.59999 0.346241 0
M  V30 9183 H 881.083 -4.32 0.394768 0
M  V30 9184 H 881.754 -5.46609 -0.769576 0
M  V30 9185 H 884.23 -3.78934 -1.71897 0
M  V30 9186 H 883.106 -4.79885 -2.66461 0
M  V30 9187 H 883.367 -3.12464 -3.1276 0
M  V30 9188 N 882.426 0.269451 -1.5528 0
M  V30 9189 C 883.356 1.33729 -1.91413 0
M  V30 9190 C 884.337 1.51348 -0.776391 0
M  V30 9191 O 885.522 1.64332 -1.03482 0
M  V30 9192 C 882.652 2.69618 -2.18914 0
M  V30 9193 C 881.606 2.66725 -3.34726 0
M  V30 9194 C 880.932 4.06199 -3.47716 0
M  V30 9195 C 882.232 2.25684 -4.71025 0
M  V30 9196 H 883.926 1.03736 -2.80854 0
M  V30 9197 H 881.472 0.497579 -1.3513 0
M  V30 9198 H 883.425 3.44436 -2.42779 0
M  V30 9199 H 882.149 3.01201 -1.26275 0
M  V30 9200 H 880.808 1.94365 -3.10834 0
M  V30 9201 H 880.456 4.3501 -2.52537 0
M  V30 9202 H 880.156 4.05157 -4.25583 0
M  V30 9203 H 881.68 4.8275 -3.73877 0
M  V30 9204 H 883.094 2.90225 -4.94411 0
M  V30 9205 H 881.491 2.35797 -5.51833 0
M  V30 9206 H 882.561 1.20819 -4.69607 0
M  V30 9207 N 883.904 1.48273 0.534124 0
M  V30 9208 C 885.15 1.56311 1.29208 0
M  V30 9209 C 885.483 0.234481 1.92779 0
M  V30 9210 O 884.758 -0.759143 1.79073 0
M  V30 9211 C 885.041 2.69831 2.3846 0
M  V30 9212 C 884.894 4.12385 1.79608 0
M  V30 9213 C 886.213 2.79133 3.40254 0
M  V30 9214 H 883.332 0.56899 0.468422 0
M  V30 9215 H 885.974 1.80429 0.595438 0
M  V30 9216 H 884.124 2.49397 2.97881 0
M  V30 9217 H 885.796 4.44246 1.24269 0
M  V30 9218 H 884.039 4.19579 1.10162 0
M  V30 9219 H 884.71 4.87629 2.58693 0
M  V30 9220 H 887.186 2.97632 2.90783 0
M  V30 9221 H 886.062 3.60298 4.14097 0
M  V30 9222 H 886.323 1.87122 4.00547 0
M  V30 9223 N 885.382 -0.782676 1.36792 0
M  V30 9224 C 886.63 -1.53778 1.31136 0
M  V30 9225 C 886.951 -1.94706 -0.107014 0
M  V30 9226 O 886.221 -1.65465 -1.04872 0
M  V30 9227 H 884.801 -0.570328 0.482426 0
M  V30 9228 H 887.463 -0.932181 1.71162 0
M  V30 9229 H 886.559 -2.44224 1.94321 0
M  V30 9230 O 886.899 -1.32567 -0.922407 0
M  V30 9231 H 887.59 -1.15504 -1.55494 0
M  V30 END ATOM
M  V30 BEGIN BOND
M  V30 END BOND
M  V30 END CTAB
M  END
$$$$
