drugbank_target|P52569 Cationic amino acid transporter 2 (DB00123; DB00129)
 OpenBabel12092119343D

  0  0  0     0  0            999 V3000
M  V30 BEGIN CTAB
M  V30 COUNTS 10178 10302 0 0 0
M  V30 BEGIN ATOM
M  V30 1 H -0.908 1.98254 -0.117106 0
M  V30 2 N 0 1.576 0 0
M  V30 3 C 0.933 2.03868 1.02534 0
M  V30 4 C 1.911 0.928543 1.3348 0
M  V30 5 O 3.095 1.19667 1.45644 0
M  V30 6 C 0.222 2.43627 2.35294 0
M  V30 7 C -0.732 3.65373 2.2001 0
M  V30 8 S 0.101 5.13292 1.52614 0
M  V30 9 C 1.257 5.56322 2.86805 0
M  V30 10 H 1.49 2.90518 0.631377 0
M  V30 11 H -0.977 1.52953 0.210867 0
M  V30 12 H 0.981 2.67203 3.11629 0
M  V30 13 H -0.358 1.57376 2.7183 0
M  V30 14 H -1.165 3.90944 3.18086 0
M  V30 15 H -1.563 3.418 1.51819 0
M  V30 16 H 0.729 5.58782 3.83104 0
M  V30 17 H 1.672 6.56266 2.65933 0
M  V30 18 H 2.08 4.83886 2.90714 0
M  V30 19 N 1.4781 -0.272755 1.55222 0
M  V30 20 C 2.7271 -1.00211 1.75045 0
M  V30 21 C 3.0401 -1.87441 0.559046 0
M  V30 22 O 4.2461 -2.63856 0.639698 0
M  V30 23 C 2.7021 -1.83165 3.09804 0
M  V30 24 C 2.3101 -1.008 4.36513 0
M  V30 25 C 4.0541 -2.55529 3.38977 0
M  V30 26 C 1.9611 -1.83194 5.62311 0
M  V30 27 H 0.8911 -0.377878 0.652476 0
M  V30 28 H 3.5421 -0.257776 1.8168 0
M  V30 29 H 1.9241 -2.61694 2.97207 0
M  V30 30 H 3.0981 -0.266855 4.60027 0
M  V30 31 H 1.4131 -0.398897 4.14485 0
M  V30 32 H 4.0101 -3.17578 4.30172 0
M  V30 33 H 4.3531 -3.25825 2.59121 0
M  V30 34 H 4.8861 -1.84029 3.52673 0
M  V30 35 H 1.6251 -1.17318 6.44916 0
M  V30 36 H 1.1451 -2.54905 5.4294 0
M  V30 37 H 2.8241 -2.40552 6.00619 0
M  V30 38 N 2.9562 -1.48159 -0.537278 0
M  V30 39 C 4.3672 -1.49429 -1.11928 0
M  V30 40 C 4.7182 -0.26 -1.9447 0
M  V30 41 O 3.8432 0.633489 -2.0692 0
M  V30 42 C 4.4382 -2.70758 -2.03656 0
M  V30 43 C 2.9972 -2.74923 -2.57088 0
M  V30 44 C 2.1442 -2.42835 -1.3389 0
M  V30 45 H 5.0952 -1.55381 -0.322886 0
M  V30 46 H 5.1162 -2.48861 -2.87834 0
M  V30 47 H 4.6282 -3.60575 -1.43553 0
M  V30 48 H 2.7292 -1.89296 -3.20933 0
M  V30 49 H 2.8422 -3.76157 -2.9672 0
M  V30 50 H 1.2062 -1.93836 -1.65226 0
M  V30 51 H 1.9892 -3.34884 -0.755504 0
M  V30 52 N 4.4343 0.785586 -1.36625 0
M  V30 53 C 5.6743 1.55678 -1.32453 0
M  V30 54 C 6.0383 1.91769 0.0941089 0
M  V30 55 O 7.2393 2.67536 0.26042 0
M  V30 56 C 5.5103 2.79701 -2.22491 0
M  V30 57 S 7.0693 3.69907 -2.36038 0
M  V30 58 H 3.8873 0.533141 -0.470405 0
M  V30 59 H 6.4893 0.924953 -1.72235 0
M  V30 60 H 5.1933 2.51244 -3.24507 0
M  V30 61 H 4.7243 3.47854 -1.83742 0
M  V30 62 H 6.7393 4.71016 -1.56072 0
M  V30 63 N 5.9124 1.20967 1.01018 0
M  V30 64 C 7.3284 0.965905 1.27053 0
M  V30 65 C 7.5284 -0.350785 1.98423 0
M  V30 66 O 6.5844 -1.07773 2.28344 0
M  V30 67 C 7.8974 2.15294 2.09926 0
M  V30 68 C 9.4454 2.19463 2.23171 0
M  V30 69 C 9.9204 3.3767 3.09424 0
M  V30 70 N 11.4114 3.37724 3.17012 0
M  V30 71 C 12.1464 4.25837 3.83993 0
M  V30 72 N 11.6424 5.24138 4.53047 0
M  V30 73 N 13.4354 4.1366 3.80581 0
M  V30 74 H 5.5864 2.0565 0.531194 0
M  V30 75 H 7.8494 0.90024 0.297106 0
M  V30 76 H 7.5554 3.10684 1.64828 0
M  V30 77 H 7.4294 2.13923 3.10672 0
M  V30 78 H 9.8164 1.24632 2.6749 0
M  V30 79 H 9.8974 2.2488 1.21912 0
M  V30 80 H 9.5414 4.32791 2.65808 0
M  V30 81 H 9.4714 3.29491 4.10784 0
M  V30 82 H 11.9624 2.6658 2.6785 0
M  V30 83 H 12.2754 5.87684 5.01844 0
M  V30 84 H 10.6204 5.28068 4.5185 0
M  V30 85 H 13.8114 3.36127 3.25785 0
M  V30 86 H 13.9844 4.82538 4.32505 0
M  V30 87 N 7.3905 -1.2043 1.01659 0
M  V30 88 C 8.3535 -2.21433 0.591616 0
M  V30 89 C 9.3535 -1.57203 -0.338226 0
M  V30 90 O 10.5435 -1.73737 -0.126918 0
M  V30 91 C 7.6755 -3.40628 -0.136058 0
M  V30 92 H 8.8685 -2.60545 1.48514 0
M  V30 93 H 6.4215 -1.33893 0.806379 0
M  V30 94 H 7.1565 -3.07019 -1.04449 0
M  V30 95 H 6.9415 -3.88475 0.531917 0
M  V30 96 H 8.4315 -4.15475 -0.420735 0
M  V30 97 N 8.8686 -0.792821 -1.36206 0
M  V30 98 C 9.8316 -0.199459 -2.2833 0
M  V30 99 C 10.8316 0.605189 -1.48977 0
M  V30 100 O 12.0216 0.425685 -1.68919 0
M  V30 101 C 9.1536 0.723523 -3.33134 0
M  V30 102 H 10.3466 -1.01181 -2.82316 0
M  V30 103 H 7.8996 -0.562485 -1.45828 0
M  V30 104 H 8.6346 1.56008 -2.84309 0
M  V30 105 H 8.4196 0.148436 -3.91819 0
M  V30 106 H 9.9096 1.13344 -4.01924 0
M  V30 107 N 10.3467 1.47872 -0.545128 0
M  V30 108 C 11.2767 2.32661 0.197793 0
M  V30 109 C 12.2577 1.43041 0.920504 0
M  V30 110 O 13.4427 1.71912 0.90333 0
M  V30 111 C 10.5727 3.24569 1.23582 0
M  V30 112 C 9.5267 4.23333 0.630323 0
M  V30 113 C 8.8527 5.0448 1.77211 0
M  V30 114 C 10.1527 5.20704 -0.407974 0
M  V30 115 H 11.8467 2.95024 -0.510045 0
M  V30 116 H 9.3927 1.4187 -0.246731 0
M  V30 117 H 11.3457 3.8272 1.76362 0
M  V30 118 H 10.0697 2.60236 1.97344 0
M  V30 119 H 8.7287 3.6639 0.123922 0
M  V30 120 H 8.3767 4.36561 2.49847 0
M  V30 121 H 8.0767 5.71339 1.37281 0
M  V30 122 H 9.6007 5.65487 2.3034 0
M  V30 123 H 11.0147 5.7329 0.033305 0
M  V30 124 H 9.4117 5.95699 -0.725486 0
M  V30 125 H 10.4817 4.66917 -1.30828 0
M  V30 126 N 11.8248 0.280983 1.55075 0
M  V30 127 C 13.0528 -0.337293 2.04132 0
M  V30 128 C 13.4678 -1.4903 1.15912 0
M  V30 129 O 12.8248 -1.81606 0.180459 0
M  V30 130 C 12.8758 -0.812706 3.52246 0
M  V30 131 O 12.5968 0.294387 4.3711 0
M  V30 132 C 14.0978 -1.4982 4.17216 0
M  V30 133 H 11.3178 -0.0761638 0.666663 0
M  V30 134 H 13.8618 0.414787 2.00249 0
M  V30 135 H 12.0168 -1.51486 3.56554 0
M  V30 136 H 12.4308 -0.0721325 5.2445 0
M  V30 137 H 13.9048 -1.7822 5.22438 0
M  V30 138 H 14.3818 -2.43168 3.65741 0
M  V30 139 H 14.9878 -0.839742 4.16927 0
M  V30 140 N 13.3029 -1.57598 0.00835791 0
M  V30 141 C 14.5499 -1.90928 -0.674732 0
M  V30 142 C 14.8779 -0.88277 -1.73313 0
M  V30 143 O 14.1329 0.111294 -1.95383 0
M  V30 144 C 14.4319 -3.3101 -1.34787 0
M  V30 145 C 14.0979 -4.48922 -0.421861 0
M  V30 146 C 12.7599 -4.8091 -0.166927 0
M  V30 147 C 15.1119 -5.20755 0.215211 0
M  V30 148 C 12.4399 -5.821 0.733232 0
M  V30 149 C 14.7919 -6.22905 1.1033 0
M  V30 150 C 13.4559 -6.53346 1.36733 0
M  V30 151 H 12.7259 -0.698656 -0.246902 0
M  V30 152 H 15.3729 -1.91387 0.0656779 0
M  V30 153 H 13.6779 -3.26714 -2.16253 0
M  V30 154 H 15.3749 -3.54061 -1.8826 0
M  V30 155 H 11.9649 -4.23934 -0.630729 0
M  V30 156 H 16.1489 -4.9629 0.0312829 0
M  V30 157 H 11.4049 -6.04042 0.945712 0
M  V30 158 H 15.5789 -6.77694 1.60325 0
M  V30 159 H 13.2059 -7.31573 2.06652 0
M  V30 160 N 14.781 0.264519 -1.55364 0
M  V30 161 C 15.744 1.31046 -1.88042 0
M  V30 162 C 16.744 1.41943 -0.755569 0
M  V30 163 O 17.934 1.40947 -1.02369 0
M  V30 164 C 15.066 2.69067 -2.09323 0
M  V30 165 H 16.259 1.03297 -2.81549 0
M  V30 166 H 13.812 0.502989 -1.47986 0
M  V30 167 H 14.547 3.01982 -1.18226 0
M  V30 168 H 14.332 2.62542 -2.91229 0
M  V30 169 H 15.822 3.44623 -2.35848 0
M  V30 170 N 16.2591 1.48442 0.529413 0
M  V30 171 C 17.6751 1.34575 0.858004 0
M  V30 172 C 17.8751 0.3572 1.98309 0
M  V30 173 O 16.9311 -0.221379 2.51528 0
M  V30 174 C 18.2441 2.74617 1.22499 0
M  V30 175 C 19.7921 2.83109 1.33484 0
M  V30 176 C 20.2671 4.23854 1.73526 0
M  V30 177 N 21.7581 4.2653 1.80628 0
M  V30 178 C 22.4931 5.32372 2.12997 0
M  V30 179 N 21.9891 6.48491 2.43786 0
M  V30 180 N 23.7821 5.19766 2.14008 0
M  V30 181 H 15.9331 2.1133 -0.212925 0
M  V30 182 H 18.1961 0.947439 -0.0326199 0
M  V30 183 H 17.9021 3.4852 0.471905 0
M  V30 184 H 17.7761 3.08177 2.17501 0
M  V30 185 H 20.1631 2.09462 2.0787 0
M  V30 186 H 20.2441 2.53168 0.366027 0
M  V30 187 H 19.8881 4.98018 0.997013 0
M  V30 188 H 19.8181 4.5124 2.71459 0
M  V30 189 H 22.3091 3.42772 1.59108 0
M  V30 190 H 22.6221 7.24993 2.67592 0
M  V30 191 H 20.9671 6.51765 2.41304 0
M  V30 192 H 24.1581 4.28066 1.89412 0
M  V30 193 H 24.3311 6.02354 2.38902 0
M  V30 194 N 17.7372 -0.778329 1.37039 0
M  V30 195 C 18.9772 -1.54973 1.33276 0
M  V30 196 C 19.3412 -1.91816 -0.0839376 0
M  V30 197 O 20.5422 -2.6767 -0.246228 0
M  V30 198 C 18.8132 -2.78517 2.23971 0
M  V30 199 S 20.3722 -3.6865 2.37997 0
M  V30 200 H 17.1902 -0.530639 0.473226 0
M  V30 201 H 19.7922 -0.915806 1.72723 0
M  V30 202 H 18.4962 -2.4952 3.25835 0
M  V30 203 H 18.0272 -3.46875 1.85584 0
M  V30 204 H 20.0422 -4.70182 1.58567 0
M  V30 205 N 19.2153 -1.21501 -1.00376 0
M  V30 206 C 20.1453 -0.999478 -2.11028 0
M  V30 207 C 21.1263 0.0759671 -1.6993 0
M  V30 208 O 22.3113 -0.0841106 -1.94018 0
M  V30 209 C 19.4413 -0.564709 -3.42678 0
M  V30 210 C 18.3953 -1.58486 -3.97576 0
M  V30 211 C 17.7213 -1.00628 -5.25146 0
M  V30 212 C 19.0213 -2.97204 -4.29496 0
M  V30 213 H 20.7153 -1.92495 -2.29317 0
M  V30 214 H 18.2613 -0.92693 -1.102 0
M  V30 215 H 20.2143 -0.401091 -4.19487 0
M  V30 216 H 18.9383 0.396411 -3.24185 0
M  V30 217 H 17.5973 -1.73606 -3.22888 0
M  V30 218 H 17.2453 -0.0368439 -5.02987 0
M  V30 219 H 16.9453 -1.68771 -5.62841 0
M  V30 220 H 18.4693 -0.854015 -6.04598 0
M  V30 221 H 19.8833 -2.8552 -4.97143 0
M  V30 222 H 18.2803 -3.62372 -4.78338 0
M  V30 223 H 19.3503 -3.47956 -3.3772 0
M  V30 224 N 20.6934 1.19889 -1.02296 0
M  V30 225 C 21.9424 1.88743 -0.711257 0
M  V30 226 C 22.2554 1.80112 0.762817 0
M  V30 227 O 23.4614 2.44161 1.18733 0
M  V30 228 C 21.9174 3.38525 -1.22185 0
M  V30 229 C 21.5254 3.55727 -2.72328 0
M  V30 230 C 23.2694 4.12893 -0.985864 0
M  V30 231 C 21.1764 4.99369 -3.16835 0
M  V30 232 H 20.1064 0.706885 -0.262353 0
M  V30 233 H 22.7574 1.35586 -1.23648 0
M  V30 234 H 21.1394 3.91044 -0.624571 0
M  V30 235 H 22.3134 3.13564 -3.3766 0
M  V30 236 H 20.6284 2.94739 -2.9414 0
M  V30 237 H 23.2254 5.18813 -1.29374 0
M  V30 238 H 23.5684 4.16228 0.0775055 0
M  V30 239 H 24.1014 3.66494 -1.54684 0
M  V30 240 H 20.8404 5.01193 -4.22476 0
M  V30 241 H 20.3604 5.42317 -2.56228 0
M  V30 242 H 22.0394 5.67988 -3.09837 0
M  V30 243 N 22.1715 0.800033 1.35784 0
M  V30 244 C 23.5875 0.482977 1.52117 0
M  V30 245 C 23.7875 -0.996948 1.75109 0
M  V30 246 O 22.8435 -1.78216 1.78872 0
M  V30 247 C 24.1565 1.32264 2.70049 0
M  V30 248 C 25.7045 1.31742 2.83924 0
M  V30 249 C 26.1795 2.14106 4.04874 0
M  V30 250 N 27.6705 2.11607 4.12039 0
M  V30 251 C 28.4055 2.72099 5.04727 0
M  V30 252 N 27.9015 3.41492 6.02789 0
M  V30 253 N 29.6945 2.61776 4.97423 0
M  V30 254 H 21.8455 1.75856 1.19115 0
M  V30 255 H 24.1085 0.748122 0.582252 0
M  V30 256 H 23.8145 2.37261 2.59616 0
M  V30 257 H 23.6885 0.971303 3.6448 0
M  V30 258 H 26.0755 0.275333 2.93813 0
M  V30 259 H 26.1565 1.70859 1.9037 0
M  V30 260 H 25.8005 3.18351 3.95746 0
M  V30 261 H 25.7305 1.72353 4.97596 0
M  V30 262 H 28.2215 1.61112 3.41835 0
M  V30 263 H 28.5345 3.84953 6.70098 0
M  V30 264 H 26.8795 3.45596 6.02983 0
M  V30 265 H 30.0705 2.07157 4.19766 0
M  V30 266 H 30.2435 3.0921 5.69468 0
M  V30 267 N 23.6496 -1.47581 0.552962 0
M  V30 268 C 25.0656 -1.5818 0.212424 0
M  V30 269 C 25.2656 -1.55213 -1.28496 0
M  V30 270 O 24.3216 -1.45329 -2.06484 0
M  V30 271 C 25.6346 -2.88865 0.835318 0
M  V30 272 C 27.1826 -3.0244 0.806156 0
M  V30 273 C 27.6576 -4.35819 1.40804 0
M  V30 274 N 29.1486 -4.42444 1.37103 0
M  V30 275 C 29.8836 -5.44202 1.80641 0
M  V30 276 N 29.3796 -6.52795 2.32015 0
M  V30 277 N 31.1726 -5.35222 1.71738 0
M  V30 278 H 23.3236 -1.47753 1.52587 0
M  V30 279 H 25.5866 -0.702941 0.636064 0
M  V30 280 H 25.2926 -2.9676 1.88749 0
M  V30 281 H 25.1666 -3.7579 0.325848 0
M  V30 282 H 27.5536 -2.94144 -0.237317 0
M  V30 283 H 27.6346 -2.17068 1.35334 0
M  V30 284 H 27.2786 -4.44871 2.45056 0
M  V30 285 H 27.2086 -5.19916 0.836338 0
M  V30 286 H 29.6996 -3.6456 0.995202 0
M  V30 287 H 30.0126 -7.26609 2.63171 0
M  V30 288 H 28.3576 -6.53696 2.36023 0
M  V30 289 H 31.5486 -4.49284 1.31382 0
M  V30 290 H 31.7216 -6.14389 2.05987 0
M  V30 291 N 25.1277 -0.289203 -1.54924 0
M  V30 292 C 26.0747 0.592115 -2.23075 0
M  V30 293 C 27.0447 1.13881 -1.20915 0
M  V30 294 O 28.2297 1.18551 -1.495 0
M  V30 295 C 25.3697 1.76376 -2.96623 0
M  V30 296 C 24.4827 1.24959 -4.13533 0
M  V30 297 C 23.6177 2.38416 -4.74691 0
M  V30 298 C 22.6567 1.84072 -5.83767 0
M  V30 299 N 21.7937 2.91057 -6.38929 0
M  V30 300 H 26.6337 0.00432038 -2.98 0
M  V30 301 H 24.1707 -0.00963529 -1.47097 0
M  V30 302 H 26.1287 2.45268 -3.3749 0
M  V30 303 H 24.7587 2.32337 -2.24097 0
M  V30 304 H 23.8107 0.453307 -3.77689 0
M  V30 305 H 25.1227 0.811662 -4.92152 0
M  V30 306 H 24.2767 3.15276 -5.18349 0
M  V30 307 H 23.0157 2.8553 -3.95378 0
M  V30 308 H 22.0207 1.05697 -5.39545 0
M  V30 309 H 23.2457 1.37877 -6.64956 0
M  V30 310 H 21.1917 3.37526 -5.62505 0
M  V30 311 H 21.1087 2.51724 -7.12861 0
M  V30 312 H 22.3767 3.6785 -6.87246 0
M  V30 313 N 26.6058 1.57591 -0.0167156 0
M  V30 314 C 27.8548 1.90461 0.663877 0
M  V30 315 C 28.1678 0.893515 1.73999 0
M  V30 316 O 29.3738 1.11302 2.47637 0
M  V30 317 C 27.8298 3.38155 1.23204 0
M  V30 318 C 27.4378 4.47597 0.189866 0
M  V30 319 C 29.1818 3.80111 1.88986 0
M  V30 320 C 27.0888 5.86379 0.768964 0
M  V30 321 H 26.0188 0.710738 0.251729 0
M  V30 322 H 28.6698 1.83326 -0.0799926 0
M  V30 323 H 27.0518 3.40182 2.02712 0
M  V30 324 H 28.2258 4.57112 -0.581846 0
M  V30 325 H 26.5408 4.14766 -0.368475 0
M  V30 326 H 29.1378 4.81145 2.33247 0
M  V30 327 H 29.4808 3.14511 2.72743 0
M  V30 328 H 30.0138 3.80454 1.16187 0
M  V30 329 H 26.7528 6.55493 -0.0301957 0
M  V30 330 H 26.2728 5.80496 1.50945 0
M  V30 331 H 27.9518 6.34563 1.26251 0
M  V30 332 N 28.0839 -0.256276 1.55502 0
M  V30 333 C 29.3299 -0.987079 1.77157 0
M  V30 334 C 29.6629 -1.85327 0.580315 0
M  V30 335 O 28.9379 -1.89874 -0.421686 0
M  V30 336 C 29.2209 -1.85553 3.08613 0
M  V30 337 C 29.0739 -1.01816 4.38125 0
M  V30 338 C 30.3929 -2.8397 3.36228 0
M  V30 339 H 27.5119 -0.357428 0.644526 0
M  V30 340 H 30.1539 -0.258239 1.88237 0
M  V30 341 H 28.3039 -2.47695 2.99298 0
M  V30 342 H 29.9759 -0.416159 4.59419 0
M  V30 343 H 28.2189 -0.322178 4.32602 0
M  V30 344 H 28.8899 -1.65939 5.26468 0
M  V30 345 H 31.3659 -2.31964 3.45445 0
M  V30 346 H 30.2419 -3.41864 4.29442 0
M  V30 347 H 30.5029 -3.59955 2.56681 0
M  V30 348 N 29.562 -1.4872 -0.521534 0
M  V30 349 C 30.79 -1.60843 -1.30142 0
M  V30 350 C 31.205 -0.271897 -1.86832 0
M  V30 351 O 30.562 0.739969 -1.66825 0
M  V30 352 C 30.613 -2.66155 -2.4463 0
M  V30 353 O 30.334 -3.94623 -1.90275 0
M  V30 354 C 31.835 -2.88795 -3.36322 0
M  V30 355 H 29.055 -0.542075 -0.395468 0
M  V30 356 H 31.599 -1.94609 -0.628285 0
M  V30 357 H 29.754 -2.35224 -3.07812 0
M  V30 358 H 30.168 -4.52468 -2.65279 0
M  V30 359 H 31.642 -3.66264 -4.12983 0
M  V30 360 H 32.119 -1.97934 -3.9207 0
M  V30 361 H 32.725 -3.21063 -2.78924 0
M  V30 362 N 31.0401 0.771051 -1.3745 0
M  V30 363 C 31.9701 1.89827 -1.3597 0
M  V30 364 C 32.9511 1.68562 -0.228216 0
M  V30 365 O 34.1361 1.8941 -0.428675 0
M  V30 366 C 31.2661 3.2712 -1.16662 0
M  V30 367 C 30.2201 3.6295 -2.2683 0
M  V30 368 C 29.5461 4.98791 -1.92644 0
M  V30 369 C 30.8461 3.69627 -3.69017 0
M  V30 370 H 32.5401 1.91323 -2.30295 0
M  V30 371 H 30.0861 0.919082 -1.10855 0
M  V30 372 H 32.0391 4.05615 -1.14256 0
M  V30 373 H 30.7631 3.26059 -0.187926 0
M  V30 374 H 29.4221 2.86763 -2.28392 0
M  V30 375 H 29.0701 4.94271 -0.933021 0
M  V30 376 H 28.7701 5.23733 -2.66416 0
M  V30 377 H 30.2941 5.79685 -1.91826 0
M  V30 378 H 31.7081 4.38273 -3.69581 0
M  V30 379 H 30.1051 4.06067 -4.41848 0
M  V30 380 H 31.1751 2.70273 -4.02592 0
M  V30 381 N 32.5182 1.22032 0.997298 0
M  V30 382 C 33.7952 0.950823 1.70935 0
M  V30 383 C 34.1752 -0.535292 2.042 0
M  V30 384 O 33.5232 -1.50217 1.72183 0
M  V30 385 C 33.7332 1.84386 2.96315 0
M  V30 386 C 35.0812 2.09732 3.69185 0
M  V30 387 O 36.1052 1.81798 3.06314 0
M  V30 388 O 34.9642 2.57018 4.82291 0
M  V30 389 H 32.0582 0.357204 0.745878 0
M  V30 390 H 34.6042 1.32997 1.05404 0
M  V30 391 H 33.3762 2.84928 2.68201 0
M  V30 392 H 32.9992 1.46602 3.69586 0
M  V30 393 N 33.9963 -1.19345 1.0293 0
M  V30 394 C 35.2213 -1.93538 0.745511 0
M  V30 395 C 35.6463 -1.75007 -0.689511 0
M  V30 396 O 35.0043 -1.05265 -1.47611 0
M  V30 397 C 35.0523 -3.43336 1.10239 0
M  V30 398 O 34.1563 -4.11806 0.221289 0
M  V30 399 H 33.4973 -0.604193 0.275404 0
M  V30 400 H 36.0273 -1.5141 1.37609 0
M  V30 401 H 36.0373 -3.94004 1.05947 0
M  V30 402 H 34.7123 -3.56146 2.14786 0
M  V30 403 H 33.2893 -3.715 0.322842 0
M  V30 404 N 35.4744 -0.807222 -1.35358 0
M  V30 405 C 36.4044 -0.232509 -2.3234 0
M  V30 406 C 37.3854 0.642386 -1.57504 0
M  V30 407 O 38.5704 0.572526 -1.85569 0
M  V30 408 C 35.7004 0.619238 -3.41735 0
M  V30 409 C 34.6544 -0.157215 -4.27711 0
M  V30 410 C 33.9804 0.816273 -5.28433 0
M  V30 411 C 35.2804 -1.35656 -5.04376 0
M  V30 412 H 36.9744 -1.04276 -2.80654 0
M  V30 413 H 34.5204 -0.50288 -1.34934 0
M  V30 414 H 36.4734 1.03137 -4.08584 0
M  V30 415 H 35.1974 1.46239 -2.92031 0
M  V30 416 H 33.8564 -0.550525 -3.62443 0
M  V30 417 H 33.5044 1.65494 -4.74996 0
M  V30 418 H 33.2044 0.301067 -5.86828 0
M  V30 419 H 34.7284 1.22659 -5.98153 0
M  V30 420 H 36.1424 -1.01927 -5.64166 0
M  V30 421 H 34.5394 -1.8063 -5.7227 0
M  V30 422 H 35.6094 -2.14288 -4.34981 0
M  V30 423 N 36.9525 1.47285 -0.560781 0
M  V30 424 C 37.8625 2.33846 0.187954 0
M  V30 425 C 38.8785 1.48412 0.908293 0
M  V30 426 O 40.0545 1.81332 0.876388 0
M  V30 427 C 37.1195 3.25178 1.2025 0
M  V30 428 C 36.1805 4.26504 0.489208 0
M  V30 429 C 35.4135 5.13472 1.45542 0
M  V30 430 O 35.6365 5.02959 2.6905 0
M  V30 431 O 34.5705 5.93902 0.977963 0
M  V30 432 H 38.3965 2.99177 -0.522177 0
M  V30 433 H 35.9815 1.45903 -0.321364 0
M  V30 434 H 37.8635 3.81584 1.78805 0
M  V30 435 H 36.5385 2.6247 1.89449 0
M  V30 436 H 35.4455 3.73847 -0.137627 0
M  V30 437 H 36.7785 4.91935 -0.161399 0
M  V30 438 N 38.4306 0.297415 1.54768 0
M  V30 439 C 39.7076 -0.365847 1.92148 0
M  V30 440 C 40.0876 -1.71975 1.22424 0
M  V30 441 O 39.4356 -2.25666 0.358739 0
M  V30 442 C 39.6456 -0.484056 3.45627 0
M  V30 443 C 40.9936 -0.756594 4.17805 0
M  V30 444 O 42.0176 -0.568007 3.51642 0
M  V30 445 O 40.8766 -1.11863 5.34929 0
M  V30 446 H 37.9706 -0.203919 0.801465 0
M  V30 447 H 40.5166 0.34521 1.66152 0
M  V30 448 H 39.2886 0.467865 3.88493 0
M  V30 449 H 38.9116 -1.24372 3.77647 0
M  V30 450 N 39.9087 -1.5758 0.0250728 0
M  V30 451 C 41.1367 -1.9593 -0.664747 0
M  V30 452 C 41.5517 -0.901352 -1.65895 0
M  V30 453 O 40.9087 0.117255 -1.82123 0
M  V30 454 C 40.9597 -3.34342 -1.37468 0
M  V30 455 O 40.6807 -4.36079 -0.420324 0
M  V30 456 C 42.1817 -3.873 -2.1567 0
M  V30 457 H 39.4017 -0.645405 -0.183557 0
M  V30 458 H 41.9457 -2.04329 0.0836372 0
M  V30 459 H 40.1007 -3.27175 -2.0745 0
M  V30 460 H 40.5147 -5.16297 -0.923991 0
M  V30 461 H 41.9887 -4.86504 -2.60803 0
M  V30 462 H 42.4657 -3.21331 -2.99405 0
M  V30 463 H 43.0717 -3.97723 -1.50654 0
M  V30 464 N 41.3868 0.248026 -1.55636 0
M  V30 465 C 42.3338 1.30707 -1.90222 0
M  V30 466 C 43.3038 1.47881 -0.756332 0
M  V30 467 O 44.4888 1.61883 -1.00988 0
M  V30 468 C 41.6288 2.65769 -2.20138 0
M  V30 469 C 40.7418 2.56612 -3.47526 0
M  V30 470 C 39.8768 3.8402 -3.67017 0
M  V30 471 C 38.9158 3.69476 -4.8801 0
M  V30 472 N 38.0528 4.88774 -5.04029 0
M  V30 473 H 42.8928 1.00512 -2.80538 0
M  V30 474 H 40.4298 0.485055 -1.38873 0
M  V30 475 H 42.3878 3.44386 -2.35487 0
M  V30 476 H 41.0178 2.94115 -1.33027 0
M  V30 477 H 40.0698 1.69571 -3.40514 0
M  V30 478 H 41.3818 2.41774 -4.36287 0
M  V30 479 H 40.5358 4.7108 -3.8232 0
M  V30 480 H 39.2748 4.01754 -2.76487 0
M  V30 481 H 38.2798 2.80799 -4.72686 0
M  V30 482 H 39.5048 3.53238 -5.8 0
M  V30 483 H 37.4508 5.0687 -4.16435 0
M  V30 484 H 37.3678 4.76562 -5.86877 0
M  V30 485 H 38.6358 5.77335 -5.23741 0
M  V30 486 N 42.8649 1.48995 0.513639 0
M  V30 487 C 43.7949 1.67636 1.62544 0
M  V30 488 C 44.7759 0.525087 1.61793 0
M  V30 489 O 45.9609 0.759502 1.78732 0
M  V30 490 C 43.0909 1.73114 3.01079 0
M  V30 491 C 42.0449 2.87905 3.16693 0
M  V30 492 C 41.3709 2.78486 4.56453 0
M  V30 493 C 42.6709 4.29005 2.97913 0
M  V30 494 H 44.3649 2.60716 1.47198 0
M  V30 495 H 41.9109 1.25465 0.706714 0
M  V30 496 H 43.8639 1.84742 3.78746 0
M  V30 497 H 42.5879 0.766241 3.17484 0
M  V30 498 H 41.2469 2.75859 2.41448 0
M  V30 499 H 40.8949 1.7993 4.69717 0
M  V30 500 H 40.5949 3.55523 4.67843 0
M  V30 501 H 42.1189 2.92104 5.36197 0
M  V30 502 H 43.5329 4.41798 3.65359 0
M  V30 503 H 41.9299 5.07166 3.20785 0
M  V30 504 H 42.9999 4.44329 1.94165 0
M  V30 505 N 44.343 -0.763751 1.37857 0
M  V30 506 C 45.583 -1.53551 1.34913 0
M  V30 507 C 45.947 -1.91895 -0.0635882 0
M  V30 508 O 47.148 -2.67916 -0.217825 0
M  V30 509 C 45.419 -2.76126 2.26912 0
M  V30 510 S 46.978 -3.66105 2.41893 0
M  V30 511 H 43.796 -0.52559 0.478828 0
M  V30 512 H 46.398 -0.897435 1.73685 0
M  V30 513 H 45.102 -2.4605 3.28463 0
M  V30 514 H 44.633 -3.44887 1.89253 0
M  V30 515 H 46.648 -4.68473 1.63545 0
M  V30 516 N 45.8211 -1.22559 -0.990812 0
M  V30 517 C 47.2371 -0.985996 -1.255 0
M  V30 518 C 47.4371 0.319173 -1.98956 0
M  V30 519 O 46.4931 1.04127 -2.3003 0
M  V30 520 C 47.8061 -2.18607 -2.06474 0
M  V30 521 C 49.3541 -2.22985 -2.19651 0
M  V30 522 C 49.8291 -3.4255 -3.04012 0
M  V30 523 N 51.3201 -3.42725 -3.11599 0
M  V30 524 C 52.0551 -4.31892 -3.7717 0
M  V30 525 N 51.5511 -5.31279 -4.44651 0
M  V30 526 N 53.3441 -4.19662 -3.73952 0
M  V30 527 H 45.4951 -2.06469 -0.49841 0
M  V30 528 H 47.7581 -0.904853 -0.282747 0
M  V30 529 H 47.4641 -3.13267 -1.59865 0
M  V30 530 H 47.3381 -2.18838 -3.07229 0
M  V30 531 H 49.7251 -1.28871 -2.65474 0
M  V30 532 H 49.8061 -2.26791 -1.18319 0
M  V30 533 H 49.4501 -4.36965 -2.58889 0
M  V30 534 H 49.3801 -3.35984 -4.0549 0
M  V30 535 H 51.8711 -2.70807 -2.63575 0
M  V30 536 H 52.1841 -5.95593 -4.92431 0
M  V30 537 H 50.5291 -5.3519 -4.43392 0
M  V30 538 H 53.7201 -3.41268 -3.20396 0
M  V30 539 H 53.8931 -4.89358 -4.24774 0
M  V30 540 N 47.2992 1.18797 -1.03562 0
M  V30 541 C 48.5392 1.90346 -0.744832 0
M  V30 542 C 48.9032 1.78231 0.713972 0
M  V30 543 O 50.1042 2.44441 1.11813 0
M  V30 544 C 48.3752 3.36942 -1.19184 0
M  V30 545 S 49.9342 4.26638 -1.02593 0
M  V30 546 H 46.7522 0.657343 -0.270963 0
M  V30 547 H 49.3542 1.43579 -1.32685 0
M  V30 548 H 48.0582 3.43287 -2.24905 0
M  V30 549 H 47.5892 3.88745 -0.603397 0
M  V30 550 H 49.6042 4.96164 0.0596033 0
M  V30 551 N 48.7773 0.814389 1.34928 0
M  V30 552 C 49.7073 0.244827 2.32213 0
M  V30 553 C 50.6883 -0.634024 1.57842 0
M  V30 554 O 51.8733 -0.562676 1.8587 0
M  V30 555 C 49.0033 -0.601106 3.42058 0
M  V30 556 C 47.9573 0.179896 4.27622 0
M  V30 557 C 47.2833 -0.788237 5.28858 0
M  V30 558 C 48.5833 1.38329 5.03649 0
M  V30 559 H 50.2773 1.05763 2.80097 0
M  V30 560 H 47.8233 0.510029 1.34665 0
M  V30 561 H 49.7763 -1.00968 4.09125 0
M  V30 562 H 48.5003 -1.44688 2.92802 0
M  V30 563 H 47.1593 0.569739 3.62146 0
M  V30 564 H 46.8073 -1.62973 4.75866 0
M  V30 565 H 46.5073 -0.269942 5.8698 0
M  V30 566 H 48.0313 -1.19485 5.98795 0
M  V30 567 H 49.4453 1.04918 5.63618 0
M  V30 568 H 47.8423 1.83662 5.71304 0
M  V30 569 H 48.9123 2.16592 4.33839 0
M  V30 570 N 50.2554 -1.46986 0.568584 0
M  V30 571 C 51.4804 -2.07335 0.0520528 0
M  V30 572 C 51.9054 -1.41675 -1.23733 0
M  V30 573 O 51.2634 -0.495623 -1.74394 0
M  V30 574 C 51.3114 -3.60417 -0.11501 0
M  V30 575 O 50.4154 -3.95309 -1.17492 0
M  V30 576 H 49.7564 -0.661597 0.0564385 0
M  V30 577 H 52.2864 -1.88837 0.787507 0
M  V30 578 H 52.2964 -4.06698 -0.325644 0
M  V30 579 H 50.9714 -4.07601 0.826675 0
M  V30 580 H 49.5484 -3.60757 -0.943869 0
M  V30 581 N 51.7335 -0.305618 -1.54608 0
M  V30 582 C 52.9615 0.304775 -2.04643 0
M  V30 583 C 53.3765 1.47167 -1.18268 0
M  V30 584 O 52.7335 1.81296 -0.209328 0
M  V30 585 C 52.7845 0.756564 -3.53495 0
M  V30 586 O 52.5055 -0.36389 -4.36586 0
M  V30 587 C 54.0065 1.43163 -4.19546 0
M  V30 588 H 51.2265 0.0655481 -0.667791 0
M  V30 589 H 53.7705 -0.446592 -1.99564 0
M  V30 590 H 51.9255 1.45794 -3.58919 0
M  V30 591 H 52.3395 -0.0113121 -5.24499 0
M  V30 592 H 53.8135 1.69886 -5.25207 0
M  V30 593 H 54.2905 2.37318 -3.69563 0
M  V30 594 H 54.8965 0.773307 -4.18211 0
M  V30 595 N 53.2116 1.57565 -0.0334293 0
M  V30 596 C 54.1446 2.05997 0.981866 0
M  V30 597 C 55.1226 0.956647 1.3148 0
M  V30 598 O 56.3066 1.22729 1.43073 0
M  V30 599 C 53.4336 2.48564 2.30074 0
M  V30 600 C 52.4796 3.69958 2.12211 0
M  V30 601 S 53.3126 5.16414 1.41692 0
M  V30 602 C 54.4686 5.6228 2.7494 0
M  V30 603 H 54.7016 2.91792 0.569612 0
M  V30 604 H 52.2346 1.53366 0.178376 0
M  V30 605 H 54.1926 2.73753 3.05892 0
M  V30 606 H 52.8536 1.63106 2.68431 0
M  V30 607 H 52.0466 3.97603 3.09722 0
M  V30 608 H 51.6486 3.44943 1.44535 0
M  V30 609 H 53.9406 5.66783 3.71165 0
M  V30 610 H 54.8836 6.61759 2.51953 0
M  V30 611 H 55.2916 4.89944 2.80384 0
M  V30 612 N 54.6897 -0.239769 1.55765 0
M  V30 613 C 55.9667 -0.990056 1.68693 0
M  V30 614 C 56.3467 -2.03107 0.5754 0
M  V30 615 O 55.6947 -2.24604 -0.42017 0
M  V30 616 C 55.9047 -1.61696 3.09282 0
M  V30 617 C 57.2527 -2.11613 3.6811 0
M  V30 618 O 58.2767 -1.71624 3.12127 0
M  V30 619 O 57.1357 -2.85057 4.66267 0
M  V30 620 H 54.2297 -0.461299 0.686391 0
M  V30 621 H 56.7757 -0.232991 1.68093 0
M  V30 622 H 55.5477 -0.864357 3.81634 0
M  V30 623 H 55.1707 -2.44005 3.13923 0
M  V30 624 N 56.1678 -1.49265 -0.50573 0
M  V30 625 C 57.0978 -1.68495 -1.61653 0
M  V30 626 C 58.0788 -0.53366 -1.61512 0
M  V30 627 O 59.2638 -0.76897 -1.78327 0
M  V30 628 C 56.3938 -1.74709 -3.00157 0
M  V30 629 C 55.3478 -2.89581 -3.15162 0
M  V30 630 C 54.6738 -2.80903 -4.5497 0
M  V30 631 C 55.9738 -4.30578 -2.95634 0
M  V30 632 H 57.6678 -2.61493 -1.45814 0
M  V30 633 H 55.2138 -1.25838 -0.70005 0
M  V30 634 H 57.1668 -1.86748 -3.77761 0
M  V30 635 H 55.8908 -0.783067 -3.17074 0
M  V30 636 H 54.5498 -2.77136 -2.39982 0
M  V30 637 H 54.1978 -1.82419 -4.68756 0
M  V30 638 H 53.8978 -3.57999 -4.65951 0
M  V30 639 H 55.4218 -2.94944 -5.34641 0
M  V30 640 H 56.8358 -4.4373 -3.63011 0
M  V30 641 H 55.2328 -5.0886 -3.18091 0
M  V30 642 H 56.3028 -4.45352 -1.91806 0
M  V30 643 N 57.6459 0.756429 -1.3826 0
M  V30 644 C 58.8949 1.51082 -1.3363 0
M  V30 645 C 59.2079 1.95467 0.0720068 0
M  V30 646 O 60.4139 2.7043 0.240834 0
M  V30 647 C 58.8699 2.72893 -2.34644 0
M  V30 648 C 58.4779 2.35544 -3.81081 0
M  V30 649 C 60.2219 3.50791 -2.39052 0
M  V30 650 C 58.1289 3.53948 -4.73787 0
M  V30 651 H 57.0589 0.56727 -0.49671 0
M  V30 652 H 59.7099 0.827147 -1.638 0
M  V30 653 H 58.0919 3.43227 -1.97513 0
M  V30 654 H 59.2659 1.72894 -4.27135 0
M  V30 655 H 57.5809 1.70786 -3.79764 0
M  V30 656 H 60.1779 4.38823 -3.05513 0
M  V30 657 H 60.5209 3.91745 -1.40861 0
M  V30 658 H 61.0539 2.87467 -2.74968 0
M  V30 659 H 57.7929 3.18064 -5.73163 0
M  V30 660 H 57.3129 4.15651 -4.32428 0
M  V30 661 H 58.9919 4.20566 -4.91663 0
M  V30 662 N 59.124 1.23083 0.984299 0
M  V30 663 C 60.087 1.00979 2.05757 0
M  V30 664 C 61.087 -0.0269573 1.60777 0
M  V30 665 O 62.277 0.212403 1.729 0
M  V30 666 C 59.409 0.527072 3.36801 0
M  V30 667 H 60.602 1.9622 2.26799 0
M  V30 668 H 58.155 1.05072 1.15714 0
M  V30 669 H 58.89 -0.429294 3.21446 0
M  V30 670 H 58.675 1.27515 3.70786 0
M  V30 671 H 60.165 0.392942 4.15747 0
M  V30 672 N 60.6021 -1.18246 1.0419 0
M  V30 673 C 61.5321 -2.24127 0.654914 0
M  V30 674 C 62.5131 -1.66617 -0.342451 0
M  V30 675 O 63.6981 -1.92924 -0.222277 0
M  V30 676 C 60.8281 -3.47295 0.0183757 0
M  V30 677 C 59.7821 -4.17563 0.939414 0
M  V30 678 C 59.1081 -5.34438 0.167286 0
M  V30 679 C 60.4081 -4.70917 2.25908 0
M  V30 680 H 62.1021 -2.56753 1.54007 0
M  V30 681 H 59.6481 -1.23414 0.74195 0
M  V30 682 H 61.6011 -4.20572 -0.264082 0
M  V30 683 H 60.3251 -3.13907 -0.901664 0
M  V30 684 H 58.9841 -3.46186 1.20628 0
M  V30 685 H 58.6321 -4.97298 -0.7552 0
M  V30 686 H 58.3321 -5.82388 0.780901 0
M  V30 687 H 59.8561 -6.10504 -0.108125 0
M  V30 688 H 61.2701 -5.35882 2.03724 0
M  V30 689 H 59.6671 -5.29406 2.82577 0
M  V30 690 H 60.7371 -3.88272 2.9047 0
M  V30 691 N 62.0802 -0.821533 -1.34494 0
M  V30 692 C 63.3282 -0.408139 -1.97936 0
M  V30 693 C 63.6492 1.03193 -1.65457 0
M  V30 694 O 62.9192 1.71622 -0.944595 0
M  V30 695 H 61.4992 -0.147928 -0.732206 0
M  V30 696 H 64.1612 -1.05067 -1.64155 0
M  V30 697 H 63.2572 -0.52601 -3.07635 0
M  V30 698 N 63.5583 1.46682 -0.576371 0
M  V30 699 C 64.8043 2.02712 -0.0596221 0
M  V30 700 C 65.1373 1.44765 1.29448 0
M  V30 701 O 64.4123 0.610355 1.84675 0
M  V30 702 C 64.6953 3.60098 0.0129503 0
M  V30 703 C 64.5483 4.28441 -1.3696 0
M  V30 704 C 65.8673 4.34224 0.71678 0
M  V30 705 H 62.9863 0.736637 -0.0231407 0
M  V30 706 H 65.6283 1.74898 -0.742351 0
M  V30 707 H 63.7783 3.83926 0.594378 0
M  V30 708 H 65.4503 4.15896 -1.9957 0
M  V30 709 H 63.6933 3.8805 -1.93907 0
M  V30 710 H 64.3643 5.3716 -1.27135 0
M  V30 711 H 66.8403 4.15503 0.222908 0
M  V30 712 H 65.7163 5.43936 0.73657 0
M  V30 713 H 65.9773 4.04823 1.77682 0
M  V30 714 N 65.0364 0.313813 1.54444 0
M  V30 715 C 66.2844 -0.291099 1.99993 0
M  V30 716 C 66.6054 -1.53418 1.20366 0
M  V30 717 O 65.8754 -1.93544 0.302927 0
M  V30 718 H 64.4554 -0.110552 0.738774 0
M  V30 719 H 67.1174 0.428106 1.9014 0
M  V30 720 H 66.2134 -0.554268 3.07139 0
M  V30 721 N 66.5145 -1.57545 0.0417849 0
M  V30 722 C 67.7395 -1.97035 -0.647455 0
M  V30 723 C 68.1645 -0.918775 -1.64135 0
M  V30 724 O 67.5225 0.119006 -1.80909 0
M  V30 725 C 67.5705 -3.35609 -1.31905 0
M  V30 726 O 66.6745 -3.3287 -2.43457 0
M  V30 727 H 66.0155 -0.64211 -0.169086 0
M  V30 728 H 68.5455 -2.04318 0.107399 0
M  V30 729 H 68.5555 -3.72126 -1.67291 0
M  V30 730 H 67.2305 -4.11685 -0.590586 0
M  V30 731 H 65.8075 -3.08087 -2.10088 0
M  V30 732 N 67.9926 0.231505 -1.5589 0
M  V30 733 C 69.2206 0.974505 -1.82513 0
M  V30 734 C 69.6356 1.78344 -0.619591 0
M  V30 735 O 68.9926 1.77792 0.411848 0
M  V30 736 C 69.0436 1.90007 -3.07538 0
M  V30 737 O 68.7646 1.12385 -4.2344 0
M  V30 738 C 70.2656 2.75779 -3.47075 0
M  V30 739 H 67.4856 0.286065 -0.606966 0
M  V30 740 H 70.0296 0.249739 -2.02969 0
M  V30 741 H 68.1846 2.57891 -2.89086 0
M  V30 742 H 68.5986 1.75125 -4.944 0
M  V30 743 H 70.0726 3.36443 -4.37619 0
M  V30 744 H 70.5496 3.47672 -2.68367 0
M  V30 745 H 71.1556 2.13323 -3.67931 0
M  V30 746 N 69.4707 1.49531 0.497807 0
M  V30 747 C 70.4007 1.6935 1.60757 0
M  V30 748 C 71.3817 0.542218 1.61227 0
M  V30 749 O 72.5667 0.778417 1.77917 0
M  V30 750 C 69.6967 1.76298 2.99226 0
M  V30 751 C 68.6507 2.91248 3.13622 0
M  V30 752 C 67.9767 2.83312 4.53474 0
M  V30 753 C 69.2767 4.3214 2.93346 0
M  V30 754 H 70.9707 2.62263 1.44425 0
M  V30 755 H 68.5167 1.26208 0.693367 0
M  V30 756 H 70.4697 1.88749 3.76765 0
M  V30 757 H 69.1937 0.799871 3.16654 0
M  V30 758 H 67.8527 2.78404 2.38509 0
M  V30 759 H 67.5007 1.84902 4.67782 0
M  V30 760 H 67.2007 3.60465 4.64046 0
M  V30 761 H 68.7247 2.97775 5.33069 0
M  V30 762 H 70.1387 4.45649 3.60652 0
M  V30 763 H 68.5357 5.1054 3.15387 0
M  V30 764 H 69.6057 4.46363 1.89441 0
M  V30 765 N 70.9488 -0.749086 1.3866 0
M  V30 766 C 72.1968 -1.50535 1.34847 0
M  V30 767 C 72.5178 -1.94909 -0.0595016 0
M  V30 768 O 71.7878 -1.67973 -1.00806 0
M  V30 769 H 70.3678 -0.558395 0.49619 0
M  V30 770 H 73.0298 -0.890165 1.73384 0
M  V30 771 H 72.1258 -2.39413 2.00219 0
M  V30 772 N 72.4269 -1.23603 -0.977757 0
M  V30 773 C 73.3899 -1.02069 -2.05218 0
M  V30 774 C 74.3899 0.0184305 -1.60789 0
M  V30 775 O 75.5799 -0.221569 -1.72785 0
M  V30 776 C 72.7119 -0.544926 -3.36517 0
M  V30 777 H 73.9049 -1.9742 -2.25755 0
M  V30 778 H 71.4579 -1.05684 -1.15155 0
M  V30 779 H 72.1929 0.412241 -3.21669 0
M  V30 780 H 71.9779 -1.2948 -3.70105 0
M  V30 781 H 73.4679 -0.414985 -4.15533 0
M  V30 782 N 73.905 1.17692 -1.04816 0
M  V30 783 C 75.153 1.87488 -0.754497 0
M  V30 784 C 75.474 1.81205 0.720407 0
M  V30 785 O 74.744 1.23544 1.52032 0
M  V30 786 H 73.324 0.694101 -0.276102 0
M  V30 787 H 75.986 1.42793 -1.32651 0
M  V30 788 H 75.082 2.93328 -1.06606 0
M  V30 789 N 75.3831 0.828654 1.34056 0
M  V30 790 C 76.6291 0.42008 1.98402 0
M  V30 791 C 76.9621 -1.01564 1.65525 0
M  V30 792 O 76.2371 -1.70834 0.929831 0
M  V30 793 C 76.5201 0.62927 3.54559 0
M  V30 794 C 76.3731 2.11152 3.97159 0
M  V30 795 C 77.6921 0.0688756 4.40046 0
M  V30 796 H 74.8111 0.154104 0.720709 0
M  V30 797 H 77.4531 1.04228 1.5886 0
M  V30 798 H 75.6031 0.0996418 3.88372 0
M  V30 799 H 77.2751 2.70522 3.73651 0
M  V30 800 H 75.5181 2.59985 3.47261 0
M  V30 801 H 76.1891 2.20868 5.05887 0
M  V30 802 H 78.6651 0.521458 4.1282 0
M  V30 803 H 77.5411 0.245006 5.48353 0
M  V30 804 H 77.8021 -1.0266 4.30015 0
M  V30 805 N 76.8612 -1.46375 0.584142 0
M  V30 806 C 78.0912 -2.06461 0.0758195 0
M  V30 807 C 78.4992 -1.43322 -1.23512 0
M  V30 808 O 77.8422 -0.533216 -1.75791 0
M  V30 809 C 77.9042 -3.59131 -0.162773 0
M  V30 810 C 77.5682 -4.4447 1.06279 0
M  V30 811 C 78.5652 -4.80918 1.97519 0
M  V30 812 C 76.2502 -4.85584 1.28504 0
M  V30 813 C 78.2442 -5.57309 3.09331 0
M  V30 814 C 75.9312 -5.61734 2.4062 0
M  V30 815 C 76.9292 -5.9751 3.30863 0
M  V30 816 O 76.6172 -6.72121 4.41032 0
M  V30 817 H 76.3492 -0.673745 0.0551725 0
M  V30 818 H 78.9032 -1.88969 0.804984 0
M  V30 819 H 77.1332 -3.74936 -0.946565 0
M  V30 820 H 78.8222 -4.0114 -0.619782 0
M  V30 821 H 79.5882 -4.49732 1.81565 0
M  V30 822 H 75.4672 -4.57187 0.591702 0
M  V30 823 H 79.0112 -5.85152 3.79793 0
M  V30 824 H 74.9082 -5.92334 2.56537 0
M  V30 825 H 75.6762 -6.90547 4.39417 0
M  V30 826 N 78.3393 -0.321999 -1.54275 0
M  V30 827 C 79.5853 0.281461 -2.00837 0
M  V30 828 C 79.9183 1.51909 -1.20985 0
M  V30 829 O 79.1933 1.923 -0.291733 0
M  V30 830 C 79.4763 0.617162 -3.54772 0
M  V30 831 C 79.3293 -0.631064 -4.45351 0
M  V30 832 C 80.6483 1.43542 -4.16033 0
M  V30 833 H 77.7673 0.100826 -0.730071 0
M  V30 834 H 80.4093 -0.438268 -1.84876 0
M  V30 835 H 78.5593 1.23034 -3.68504 0
M  V30 836 H 80.2313 -1.26934 -4.43492 0
M  V30 837 H 78.4743 -1.26025 -4.15091 0
M  V30 838 H 79.1453 -0.351735 -5.50878 0
M  V30 839 H 81.6213 0.917134 -4.05867 0
M  V30 840 H 80.4973 1.63907 -5.23856 0
M  V30 841 H 80.7583 2.43108 -3.69257 0
M  V30 842 N 79.8174 1.5752 -0.0501392 0
M  V30 843 C 80.7474 2.14502 0.922566 0
M  V30 844 C 81.7284 1.06642 1.3252 0
M  V30 845 O 82.9134 1.34577 1.4001 0
M  V30 846 C 80.0434 2.68916 2.19776 0
M  V30 847 C 78.9974 3.8175 1.93523 0
M  V30 848 C 78.3234 4.22677 3.27487 0
M  V30 849 C 79.6234 5.06932 1.25765 0
M  V30 850 H 81.3174 2.9603 0.447952 0
M  V30 851 H 78.8634 1.42401 0.214024 0
M  V30 852 H 80.8164 3.07419 2.88222 0
M  V30 853 H 79.5404 1.84578 2.69441 0
M  V30 854 H 78.1994 3.43718 1.27489 0
M  V30 855 H 77.8474 3.35291 3.74952 0
M  V30 856 H 77.5474 4.98725 3.1072 0
M  V30 857 H 79.0714 4.63779 3.97166 0
M  V30 858 H 80.4854 5.42888 1.84244 0
M  V30 859 H 78.8824 5.88116 1.19328 0
M  V30 860 H 79.9524 4.84337 0.233536 0
M  V30 861 N 81.2955 -0.223234 1.56011 0
M  V30 862 C 82.2585 -1.26014 1.9145 0
M  V30 863 C 83.2585 -1.3989 0.792937 0
M  V30 864 O 84.4485 -1.38184 1.0607 0
M  V30 865 C 81.5805 -2.63422 2.16383 0
M  V30 866 H 82.7735 -0.95796 2.84189 0
M  V30 867 H 80.3265 -0.463576 1.49267 0
M  V30 868 H 81.0615 -2.98741 1.2619 0
M  V30 869 H 80.8465 -2.54728 2.98088 0
M  V30 870 H 82.3365 -3.38249 2.44903 0
M  V30 871 N 82.7736 -1.49793 -0.48987 0
M  V30 872 C 84.0216 -1.59525 -1.24081 0
M  V30 873 C 84.3426 -0.288953 -1.92847 0
M  V30 874 O 83.6126 0.692436 -1.83254 0
M  V30 875 H 82.1926 -0.587796 -0.460983 0
M  V30 876 H 84.8546 -1.86477 -0.566778 0
M  V30 877 H 83.9506 -2.39696 -1.99881 0
M  V30 878 N 84.2517 0.741722 -1.39055 0
M  V30 879 C 85.1617 1.88621 -1.39496 0
M  V30 880 C 86.1777 1.71557 -0.290578 0
M  V30 881 O 87.3537 1.94275 -0.530954 0
M  V30 882 C 84.4187 3.24134 -1.23037 0
M  V30 883 C 83.4797 3.5364 -2.43387 0
M  V30 884 C 82.7127 4.82687 -2.27703 0
M  V30 885 O 82.9357 5.55922 -1.27696 0
M  V30 886 O 81.8697 5.1194 -3.16545 0
M  V30 887 H 85.6957 1.91203 -2.35956 0
M  V30 888 H 83.2807 0.888625 -1.20099 0
M  V30 889 H 85.1627 4.0513 -1.15964 0
M  V30 890 H 83.8377 3.22337 -0.296691 0
M  V30 891 H 82.7447 2.72758 -2.56035 0
M  V30 892 H 84.0777 3.60209 -3.35425 0
M  V30 893 N 85.7298 1.2412 0.971189 0
M  V30 894 C 86.9758 1.08041 1.71625 0
M  V30 895 C 87.3088 -0.380407 1.90438 0
M  V30 896 O 86.5838 -1.28127 1.46334 0
M  V30 897 C 86.8668 1.81682 3.10908 0
M  V30 898 C 86.7198 3.35493 2.99608 0
M  V30 899 C 88.0388 1.58671 4.10501 0
M  V30 900 H 85.1578 0.39388 0.622919 0
M  V30 901 H 87.7998 1.52743 1.13003 0
M  V30 902 H 85.9498 1.43684 3.60953 0
M  V30 903 H 87.6218 3.83068 2.57015 0
M  V30 904 H 85.8648 3.64052 2.35899 0
M  V30 905 H 86.5358 3.82217 3.98264 0
M  V30 906 H 89.0118 1.91719 3.69301 0
M  V30 907 H 87.8878 2.1266 5.06031 0
M  V30 908 H 88.1488 0.524161 4.38982 0
M  V30 909 N 87.2079 -1.17134 1.05439 0
M  V30 910 C 88.1709 -2.19439 0.661764 0
M  V30 911 C 89.1709 -1.58199 -0.288042 0
M  V30 912 O 90.3609 -1.74053 -0.0715803 0
M  V30 913 C 87.4929 -3.40889 -0.0276209 0
M  V30 914 H 88.6859 -2.55688 1.56728 0
M  V30 915 H 86.2389 -1.31259 0.848567 0
M  V30 916 H 86.9739 -3.10187 -0.94629 0
M  V30 917 H 86.7589 -3.86586 0.655238 0
M  V30 918 H 88.2489 -4.16603 -0.288342 0
M  V30 919 N 88.686 -0.835752 -1.33615 0
M  V30 920 C 89.633 -0.26473 -2.29277 0
M  V30 921 C 90.603 0.617712 -1.54187 0
M  V30 922 O 91.788 0.556641 -1.825 0
M  V30 923 C 88.928 0.556777 -3.40579 0
M  V30 924 C 88.041 -0.349339 -4.30585 0
M  V30 925 C 87.176 0.482969 -5.29 0
M  V30 926 C 86.215 -0.421732 -6.10645 0
M  V30 927 N 85.352 0.372262 -7.01112 0
M  V30 928 H 90.192 -1.08582 -2.77514 0
M  V30 929 H 87.729 -0.546927 -1.36554 0
M  V30 930 H 89.687 1.04852 -4.03809 0
M  V30 931 H 88.317 1.34286 -2.93542 0
M  V30 932 H 87.369 -0.959372 -3.68104 0
M  V30 933 H 88.681 -1.04445 -4.87742 0
M  V30 934 H 87.835 1.03866 -5.97743 0
M  V30 935 H 86.574 1.21153 -4.72412 0
M  V30 936 H 85.579 -0.989464 -5.40823 0
M  V30 937 H 86.804 -1.14861 -6.69316 0
M  V30 938 H 84.75 1.08426 -6.46977 0
M  V30 939 H 84.667 -0.264198 -7.55538 0
M  V30 940 H 85.935 0.910293 -7.74167 0
M  V30 941 N 90.1641 1.46063 -0.591896 0
M  V30 942 C 91.1271 2.28854 0.125973 0
M  V30 943 C 92.1271 1.38903 0.810107 0
M  V30 944 O 93.3171 1.61186 0.66066 0
M  V30 945 C 90.4491 3.19526 1.1881 0
M  V30 946 H 91.6421 2.93802 -0.601717 0
M  V30 947 H 89.1951 1.52325 -0.350254 0
M  V30 948 H 89.9301 2.59345 1.94707 0
M  V30 949 H 89.7151 3.85766 0.701936 0
M  V30 950 H 91.2051 3.81817 1.69132 0
M  V30 951 N 91.6422 0.330177 1.54103 0
M  V30 952 C 92.9192 -0.325007 1.92881 0
M  V30 953 C 93.2992 -1.6934 1.26045 0
M  V30 954 O 92.6472 -2.24855 0.406526 0
M  V30 955 C 92.8572 -0.410634 3.46576 0
M  V30 956 C 94.2052 -0.667801 4.19316 0
M  V30 957 O 95.2292 -0.49329 3.52768 0
M  V30 958 O 94.0882 -1.00491 5.37181 0
M  V30 959 H 91.1822 -0.186873 0.80561 0
M  V30 960 H 93.7282 0.380376 1.65382 0
M  V30 961 H 92.5002 0.550164 3.87413 0
M  V30 962 H 92.1232 -1.16333 3.802 0
M  V30 963 N 93.1203 -1.57491 0.0584922 0
M  V30 964 C 94.3453 -1.97711 -0.62652 0
M  V30 965 C 94.7703 -0.936132 -1.63151 0
M  V30 966 O 94.1283 0.099811 -1.81025 0
M  V30 967 C 94.1763 -3.36989 -1.28338 0
M  V30 968 O 93.2803 -3.35433 -2.39913 0
M  V30 969 H 92.6213 -0.643868 -0.162266 0
M  V30 970 H 95.1513 -2.04193 0.129064 0
M  V30 971 H 95.1613 -3.73879 -1.63335 0
M  V30 972 H 93.8363 -4.12289 -0.546889 0
M  V30 973 H 92.4133 -3.10298 -2.06809 0
M  V30 974 N 94.5984 0.214957 -1.56127 0
M  V30 975 C 95.8464 0.936518 -1.79091 0
M  V30 976 C 96.1674 1.84606 -0.628148 0
M  V30 977 O 95.4374 1.92664 0.35462 0
M  V30 978 H 94.0174 0.3488 -0.660566 0
M  V30 979 H 96.6794 0.22523 -1.93594 0
M  V30 980 H 95.7754 1.53943 -2.71492 0
M  V30 981 N 96.0765 1.50051 0.48192 0
M  V30 982 C 97.4875 1.5348 1.06305 0
M  V30 983 C 97.8385 0.331997 1.93371 0
M  V30 984 O 96.9635 -0.556256 2.09129 0
M  V30 985 C 97.5585 2.7813 1.93466 0
M  V30 986 C 96.1175 2.84275 2.46707 0
M  V30 987 C 95.2645 2.47637 1.24785 0
M  V30 988 H 98.2155 1.56472 0.264995 0
M  V30 989 H 98.2365 2.59372 2.78399 0
M  V30 990 H 97.7485 3.65654 1.30072 0
M  V30 991 H 95.8495 2.01077 3.13686 0
M  V30 992 H 95.9625 3.8691 2.82555 0
M  V30 993 H 94.3265 1.99835 1.57918 0
M  V30 994 H 95.1095 3.37457 0.630694 0
M  V30 995 N 97.5546 -0.734337 1.39446 0
M  V30 996 C 98.7796 -1.52866 1.40167 0
M  V30 997 C 99.2046 -1.881 -0.00171513 0
M  V30 998 O 98.5626 -1.51957 -0.988879 0
M  V30 999 C 98.6106 -2.79235 2.28167 0
M  V30 1000 O 97.7146 -3.75185 1.71201 0
M  V30 1001 H 97.0556 -0.461618 0.477289 0
M  V30 1002 H 99.5856 -0.905949 1.8345 0
M  V30 1003 H 99.5956 -3.27963 2.42702 0
M  V30 1004 H 98.2706 -2.52923 3.30156 0
M  V30 1005 H 96.8476 -3.33958 1.65912 0
M  V30 1006 N 99.0327 -1.24633 -0.964593 0
M  V30 1007 C 100.282 -1.08188 -1.7023 0
M  V30 1008 C 100.595 0.37873 -1.91898 0
M  V30 1009 O 101.801 0.663427 -2.6327 0
M  V30 1010 C 100.257 -1.88773 -3.06419 0
M  V30 1011 C 99.8647 -3.39263 -2.92582 0
M  V30 1012 C 101.609 -1.80867 -3.84041 0
M  V30 1013 C 99.5157 -4.1218 -4.24101 0
M  V30 1014 H 98.4457 -0.401245 -0.638372 0
M  V30 1015 H 101.097 -1.48742 -1.07462 0
M  V30 1016 H 99.4787 -1.41035 -3.70034 0
M  V30 1017 H 100.653 -3.94603 -2.37961 0
M  V30 1018 H 98.9677 -3.48154 -2.28424 0
M  V30 1019 H 101.565 -2.32646 -4.81435 0
M  V30 1020 H 101.908 -0.774543 -4.09031 0
M  V30 1021 H 102.441 -2.26301 -3.27159 0
M  V30 1022 H 99.1797 -5.15965 -4.04303 0
M  V30 1023 H 98.6997 -3.61626 -4.78526 0
M  V30 1024 H 100.379 -4.19349 -4.92702 0
M  V30 1025 N 100.511 1.16574 -1.06058 0
M  V30 1026 C 101.757 1.87324 -0.777022 0
M  V30 1027 C 102.09 1.81351 0.694645 0
M  V30 1028 O 101.365 1.22753 1.50871 0
M  V30 1029 C 101.648 3.36991 -1.26922 0
M  V30 1030 C 101.501 3.51667 -2.80447 0
M  V30 1031 C 102.82 4.3131 -0.87521 0
M  V30 1032 H 99.9388 0.680191 -0.28374 0
M  V30 1033 H 102.581 1.37036 -1.3161 0
M  V30 1034 H 100.731 3.79949 -0.81063 0
M  V30 1035 H 102.403 3.17664 -3.34495 0
M  V30 1036 H 100.646 2.93656 -3.19294 0
M  V30 1037 H 101.317 4.56766 -3.0995 0
M  V30 1038 H 103.793 3.9624 -1.27014 0
M  V30 1039 H 102.669 5.34545 -1.2471 0
M  V30 1040 H 102.93 4.41552 0.220071 0
M  V30 1041 N 101.989 0.842826 1.3317 0
M  V30 1042 C 103.235 0.441099 1.97945 0
M  V30 1043 C 103.568 -0.998024 1.66593 0
M  V30 1044 O 102.843 -1.69839 0.947898 0
M  V30 1045 C 103.126 0.666841 3.53872 0
M  V30 1046 C 102.979 2.15352 3.94897 0
M  V30 1047 C 104.298 0.115544 4.39948 0
M  V30 1048 H 101.417 0.161739 0.719034 0
M  V30 1049 H 104.059 1.05907 1.57746 0
M  V30 1050 H 102.209 0.140828 3.88245 0
M  V30 1051 H 103.881 2.7447 3.70761 0
M  V30 1052 H 102.124 2.63653 3.44484 0
M  V30 1053 H 102.795 2.26221 5.03516 0
M  V30 1054 H 105.271 0.565213 4.12243 0
M  V30 1055 H 104.147 0.303152 5.48062 0
M  V30 1056 H 104.408 -0.980935 4.3108 0
M  V30 1057 N 103.467 -1.45747 0.599634 0
M  V30 1058 C 104.692 -2.07178 0.0960198 0
M  V30 1059 C 105.117 -1.44268 -1.207 0
M  V30 1060 O 104.475 -0.532503 -1.73303 0
M  V30 1061 C 104.523 -3.60579 -0.0385348 0
M  V30 1062 O 103.627 -3.97713 -1.0908 0
M  V30 1063 H 102.968 -0.660251 0.0704593 0
M  V30 1064 H 105.498 -1.87124 0.827385 0
M  V30 1065 H 105.508 -4.07298 -0.239304 0
M  V30 1066 H 104.183 -4.05756 0.912947 0
M  V30 1067 H 102.76 -3.62678 -0.867135 0
M  V30 1068 N 104.945 -0.338344 -1.53925 0
M  V30 1069 C 106.192 0.259758 -2.00827 0
M  V30 1070 C 106.52 1.50973 -1.22628 0
M  V30 1071 O 105.775 1.93379 -0.300509 0
M  V30 1072 C 106.074 0.62448 -3.51902 0
M  V30 1073 C 105.74 -0.528006 -4.47798 0
M  V30 1074 C 104.402 -0.844298 -4.73735 0
M  V30 1075 C 106.754 -1.30143 -5.0469 0
M  V30 1076 C 104.082 -1.93648 -5.53821 0
M  V30 1077 C 106.434 -2.38382 -5.85967 0
M  V30 1078 C 105.098 -2.70576 -6.10201 0
M  V30 1079 H 104.368 0.0950523 -0.734878 0
M  V30 1080 H 107.015 -0.465182 -1.85764 0
M  V30 1081 H 105.32 1.43006 -3.64769 0
M  V30 1082 H 107.017 1.09905 -3.85645 0
M  V30 1083 H 103.607 -0.271421 -4.2774 0
M  V30 1084 H 107.791 -1.07033 -4.84621 0
M  V30 1085 H 103.047 -2.19021 -5.70824 0
M  V30 1086 H 107.221 -2.98746 -6.29066 0
M  V30 1087 H 104.848 -3.55333 -6.72044 0
M  V30 1088 N 106.423 1.57458 -0.0668435 0
M  V30 1089 C 107.353 2.15468 0.899764 0
M  V30 1090 C 108.334 1.08042 1.31381 0
M  V30 1091 O 109.519 1.36054 1.38574 0
M  V30 1092 C 106.649 2.71232 2.16911 0
M  V30 1093 C 105.603 3.83781 1.89463 0
M  V30 1094 C 104.929 4.26127 3.22986 0
M  V30 1095 C 106.229 5.08238 1.20381 0
M  V30 1096 H 107.923 2.96488 0.416529 0
M  V30 1097 H 105.469 1.4262 0.198908 0
M  V30 1098 H 107.422 3.10458 2.84945 0
M  V30 1099 H 106.146 1.87426 2.67468 0
M  V30 1100 H 104.805 3.45051 1.23836 0
M  V30 1101 H 104.453 3.39249 3.71374 0
M  V30 1102 H 104.153 5.01993 3.05413 0
M  V30 1103 H 105.677 4.67966 3.92225 0
M  V30 1104 H 107.091 5.44811 1.78475 0
M  V30 1105 H 105.488 5.89349 1.13083 0
M  V30 1106 H 106.558 4.84558 0.182153 0
M  V30 1107 N 107.901 -0.206675 1.56239 0
M  V30 1108 C 109.15 -0.926964 1.79138 0
M  V30 1109 C 109.463 -1.84901 0.638043 0
M  V30 1110 O 110.669 -2.60906 0.751033 0
M  V30 1111 C 109.125 -1.6986 3.17294 0
M  V30 1112 C 108.733 -0.821956 4.40395 0
M  V30 1113 C 110.477 -2.40922 3.4951 0
M  V30 1114 C 108.384 -1.59179 5.69575 0
M  V30 1115 H 107.314 -0.349864 0.667915 0
M  V30 1116 H 109.965 -0.180487 1.8261 0
M  V30 1117 H 108.347 -2.48853 3.08039 0
M  V30 1118 H 109.521 -0.0715019 4.60745 0
M  V30 1119 H 107.836 -0.222741 4.15804 0
M  V30 1120 H 110.433 -2.99047 4.43255 0
M  V30 1121 H 110.776 -3.14542 2.72707 0
M  V30 1122 H 111.309 -1.68905 3.60161 0
M  V30 1123 H 108.048 -0.898589 6.49312 0
M  V30 1124 H 107.568 -2.31648 5.53262 0
M  V30 1125 H 109.247 -2.14862 6.10281 0
M  V30 1126 N 109.379 -1.50304 -0.473955 0
M  V30 1127 C 110.342 -1.6841 -1.55469 0
M  V30 1128 C 111.342 -0.554905 -1.50922 0
M  V30 1129 O 112.532 -0.821882 -1.53593 0
M  V30 1130 C 109.664 -1.70667 -2.95102 0
M  V30 1131 H 110.857 -2.64828 -1.40733 0
M  V30 1132 H 108.41 -1.39742 -0.700132 0
M  V30 1133 H 109.145 -0.75932 -3.15285 0
M  V30 1134 H 108.93 -2.52698 -2.9981 0
M  V30 1135 H 110.42 -1.8664 -3.73571 0
M  V30 1136 N 110.857 0.726932 -1.39834 0
M  V30 1137 C 111.82 1.82269 -1.38962 0
M  V30 1138 C 112.82 1.58248 -0.285334 0
M  V30 1139 O 114.01 1.65499 -0.54366 0
M  V30 1140 C 111.142 3.20186 -1.17019 0
M  V30 1141 H 112.335 1.84443 -2.36476 0
M  V30 1142 H 109.888 0.931416 -1.25516 0
M  V30 1143 H 110.623 3.23669 -0.202204 0
M  V30 1144 H 110.408 3.3902 -1.96998 0
M  V30 1145 H 111.898 4.00235 -1.1917 0
M  V30 1146 N 112.336 1.25143 0.95797 0
M  V30 1147 C 113.266 1.07711 2.07173 0
M  V30 1148 C 114.247 -0.0128462 1.70095 0
M  V30 1149 O 115.432 0.156061 1.93572 0
M  V30 1150 C 112.562 0.691503 3.40346 0
M  V30 1151 C 111.516 1.73132 3.9142 0
M  V30 1152 C 110.842 1.20049 5.21049 0
M  V30 1153 C 112.142 3.1294 4.1817 0
M  V30 1154 H 113.836 2.00873 2.22014 0
M  V30 1155 H 111.382 0.967191 1.06684 0
M  V30 1156 H 113.335 0.556505 4.17709 0
M  V30 1157 H 112.059 -0.275819 3.25433 0
M  V30 1158 H 110.718 1.8547 3.16222 0
M  V30 1159 H 110.366 0.223499 5.02503 0
M  V30 1160 H 110.066 1.89545 5.56189 0
M  V30 1161 H 111.59 1.07782 6.01012 0
M  V30 1162 H 113.004 3.03775 4.86203 0
M  V30 1163 H 111.401 3.79875 4.64559 0
M  V30 1164 H 112.471 3.6025 3.24573 0
M  V30 1165 N 113.814 -1.1601 1.06675 0
M  V30 1166 C 114.777 -2.18724 0.685001 0
M  V30 1167 C 115.777 -1.58496 -0.271246 0
M  V30 1168 O 116.967 -1.74119 -0.0531156 0
M  V30 1169 C 114.099 -3.40899 0.00853648 0
M  V30 1170 H 115.292 -2.54011 1.59431 0
M  V30 1171 H 112.845 -1.30352 0.862441 0
M  V30 1172 H 113.58 -3.11173 -0.913337 0
M  V30 1173 H 113.365 -3.8587 0.696204 0
M  V30 1174 H 114.855 -4.16886 -0.24414 0
M  V30 1175 N 115.292 -0.849877 -1.32721 0
M  V30 1176 C 116.517 -0.463856 -2.02146 0
M  V30 1177 C 116.942 0.930449 -1.63476 0
M  V30 1178 O 116.3 1.61033 -0.832952 0
M  V30 1179 C 116.348 -0.604955 -3.55489 0
M  V30 1180 O 115.452 0.36425 -4.10788 0
M  V30 1181 H 114.793 -0.187046 -0.637111 0
M  V30 1182 H 117.323 -1.14775 -1.69375 0
M  V30 1183 H 117.333 -0.490696 -4.05038 0
M  V30 1184 H 116.008 -1.62174 -3.82978 0
M  V30 1185 H 114.585 0.206628 -3.72327 0
M  V30 1186 N 116.77 1.45427 -0.607355 0
M  V30 1187 C 118.016 2.0254 -0.102607 0
M  V30 1188 C 118.349 1.47478 1.26348 0
M  V30 1189 O 117.624 0.64939 1.83339 0
M  V30 1190 C 117.907 3.60044 -0.0634347 0
M  V30 1191 C 117.76 4.2544 -1.46017 0
M  V30 1192 C 119.079 4.35646 0.624514 0
M  V30 1193 H 116.198 0.73598 -0.0387607 0
M  V30 1194 H 118.84 1.73284 -0.779282 0
M  V30 1195 H 116.99 3.85101 0.512808 0
M  V30 1196 H 118.662 4.11569 -2.08347 0
M  V30 1197 H 116.905 3.83849 -2.02094 0
M  V30 1198 H 117.576 5.34342 -1.385 0
M  V30 1199 H 120.052 4.15882 0.134723 0
M  V30 1200 H 118.928 5.45376 0.621028 0
M  V30 1201 H 119.189 4.08501 1.69055 0
M  V30 1202 N 118.248 0.346503 1.53744 0
M  V30 1203 C 119.181 -0.552023 2.21423 0
M  V30 1204 C 120.159 -1.09798 1.19929 0
M  V30 1205 O 121.343 -1.1577 1.4876 0
M  V30 1206 C 118.47 -1.75972 2.89398 0
M  V30 1207 C 117.516 -1.34295 4.04805 0
M  V30 1208 S 118.349 -0.360263 5.34287 0
M  V30 1209 C 119.505 -1.57473 6.05767 0
M  V30 1210 H 119.738 0.0228119 2.97291 0
M  V30 1211 H 117.271 0.130579 1.53847 0
M  V30 1212 H 119.229 -2.45256 3.2918 0
M  V30 1213 H 117.89 -2.30578 2.1329 0
M  V30 1214 H 117.083 -2.24349 4.51313 0
M  V30 1215 H 116.685 -0.729555 3.66815 0
M  V30 1216 H 118.977 -2.50875 6.29339 0
M  V30 1217 H 119.92 -1.15138 6.98676 0
M  V30 1218 H 120.328 -1.77212 5.35963 0
M  V30 1219 N 119.726 -1.57421 0.075193 0
M  V30 1220 C 120.689 -2.11791 -0.876203 0
M  V30 1221 C 121.689 -1.04268 -1.22412 0
M  V30 1222 O 122.879 -1.30242 -1.15684 0
M  V30 1223 C 120.011 -2.62207 -2.17854 0
M  V30 1224 H 121.204 -2.9716 -0.40444 0
M  V30 1225 H 118.757 -1.55333 -0.173557 0
M  V30 1226 H 119.492 -1.803 -2.6956 0
M  V30 1227 H 119.277 -3.40802 -1.93897 0
M  V30 1228 H 120.767 -3.04335 -2.85955 0
M  V30 1229 N 121.204 0.198386 -1.56346 0
M  V30 1230 C 122.452 0.91747 -1.80075 0
M  V30 1231 C 122.773 1.83929 -0.647692 0
M  V30 1232 O 122.043 1.93029 0.334166 0
M  V30 1233 H 120.623 0.341774 -0.664228 0
M  V30 1234 H 123.285 0.204684 -1.93822 0
M  V30 1235 H 122.381 1.51055 -2.7311 0
M  V30 1236 N 122.682 1.50554 0.465978 0
M  V30 1237 C 123.612 1.72722 1.57128 0
M  V30 1238 C 124.593 0.576294 1.6004 0
M  V30 1239 O 125.778 0.81598 1.76225 0
M  V30 1240 C 122.908 1.82605 2.95419 0
M  V30 1241 C 121.862 2.97835 3.07373 0
M  V30 1242 C 121.188 2.92867 4.47363 0
M  V30 1243 C 122.488 4.38265 2.84114 0
M  V30 1244 H 124.182 2.65267 1.38829 0
M  V30 1245 H 121.728 1.2765 0.666441 0
M  V30 1246 H 123.681 1.96698 3.72677 0
M  V30 1247 H 122.405 0.866858 3.14886 0
M  V30 1248 H 121.064 2.83401 2.3255 0
M  V30 1249 H 120.712 1.94783 4.63755 0
M  V30 1250 H 120.412 3.70227 4.56296 0
M  V30 1251 H 121.936 3.09015 5.26633 0
M  V30 1252 H 123.35 4.53198 3.51118 0
M  V30 1253 H 121.747 5.17115 3.04487 0
M  V30 1254 H 122.817 4.50281 1.7993 0
M  V30 1255 N 124.16 -0.719506 1.40217 0
M  V30 1256 C 125.4 -1.49181 1.39729 0
M  V30 1257 C 125.764 -1.92 -0.00250614 0
M  V30 1258 O 126.965 -2.68473 -0.132479 0
M  V30 1259 C 125.236 -2.68767 2.35582 0
M  V30 1260 S 126.795 -3.58224 2.53418 0
M  V30 1261 H 123.613 -0.510091 0.495307 0
M  V30 1262 H 126.215 -0.841724 1.76452 0
M  V30 1263 H 124.919 -2.35475 3.36124 0
M  V30 1264 H 124.45 -3.38691 2.0013 0
M  V30 1265 H 126.465 -4.63033 1.78367 0
M  V30 1266 N 125.638 -1.25649 -0.95132 0
M  V30 1267 C 126.868 -1.13179 -1.72841 0
M  V30 1268 C 127.276 0.316827 -1.86528 0
M  V30 1269 O 126.619 1.22948 -1.3649 0
M  V30 1270 C 126.681 -1.71644 -3.15878 0
M  V30 1271 C 126.345 -3.20667 -3.25609 0
M  V30 1272 C 127.342 -4.17616 -3.09666 0
M  V30 1273 C 125.027 -3.6094 -3.49324 0
M  V30 1274 C 127.021 -5.52817 -3.17289 0
M  V30 1275 C 124.708 -4.96278 -3.56584 0
M  V30 1276 C 125.706 -5.92025 -3.40581 0
M  V30 1277 O 125.394 -7.24899 -3.47528 0
M  V30 1278 H 125.126 -0.395389 -0.54831 0
M  V30 1279 H 127.68 -1.66566 -1.20187 0
M  V30 1280 H 125.91 -1.12707 -3.69911 0
M  V30 1281 H 127.599 -1.54225 -3.75459 0
M  V30 1282 H 128.365 -3.87842 -2.91211 0
M  V30 1283 H 124.244 -2.86907 -3.6084 0
M  V30 1284 H 127.788 -6.2753 -3.04716 0
M  V30 1285 H 123.685 -5.25716 -3.74556 0
M  V30 1286 H 124.453 -7.33039 -3.64138 0
M  V30 1287 N 127.117 1.15442 -1.07289 0
M  V30 1288 C 128.08 2.18358 -0.696591 0
M  V30 1289 C 129.08 1.58637 0.262837 0
M  V30 1290 O 130.27 1.74145 0.0438809 0
M  V30 1291 C 127.402 3.4089 -0.0266151 0
M  V30 1292 H 128.595 2.53162 -1.60776 0
M  V30 1293 H 126.148 1.29893 -0.869342 0
M  V30 1294 H 126.883 3.11653 0.896822 0
M  V30 1295 H 126.668 3.85495 -0.716657 0
M  V30 1296 H 128.158 4.17009 0.222028 0
M  V30 1297 N 128.595 0.856903 1.32268 0
M  V30 1298 C 129.505 0.306131 2.32594 0
M  V30 1299 C 130.521 -0.577209 1.64147 0
M  V30 1300 O 131.697 -0.477043 1.95669 0
M  V30 1301 C 128.762 -0.494561 3.43154 0
M  V30 1302 C 127.823 0.415186 4.27288 0
M  V30 1303 C 127.056 -0.347387 5.32568 0
M  V30 1304 O 127.279 -1.57708 5.48165 0
M  V30 1305 O 126.213 0.287982 6.01211 0
M  V30 1306 H 130.039 1.13737 2.81598 0
M  V30 1307 H 127.624 0.619902 1.35932 0
M  V30 1308 H 129.506 -0.948944 4.10576 0
M  V30 1309 H 128.181 -1.30257 2.96336 0
M  V30 1310 H 127.088 0.917793 3.62667 0
M  V30 1311 H 128.421 1.18844 4.77637 0
M  V30 1312 N 130.073 -1.45103 0.615059 0
M  V30 1313 C 131.32 -2.02183 0.113179 0
M  V30 1314 C 131.648 -1.48249 -1.25906 0
M  V30 1315 O 130.903 -0.650265 -1.84581 0
M  V30 1316 C 131.202 -3.57386 0.0318797 0
M  V30 1317 C 130.868 -4.30505 1.34077 0
M  V30 1318 C 129.53 -4.50197 1.69929 0
M  V30 1319 C 131.882 -4.72238 2.20546 0
M  V30 1320 C 129.21 -5.08881 2.91988 0
M  V30 1321 C 131.562 -5.32272 3.41861 0
M  V30 1322 C 130.226 -5.50187 3.77956 0
M  V30 1323 H 129.496 -0.739842 0.0414151 0
M  V30 1324 H 132.143 -1.74073 0.798168 0
M  V30 1325 H 130.448 -3.84817 -0.736409 0
M  V30 1326 H 132.145 -3.99264 -0.372712 0
M  V30 1327 H 128.735 -4.15496 1.05173 0
M  V30 1328 H 132.919 -4.56751 1.94146 0
M  V30 1329 H 128.175 -5.20939 3.2005 0
M  V30 1330 H 132.349 -5.63563 4.09109 0
M  V30 1331 H 129.976 -5.95427 4.72622 0
M  V30 1332 N 131.551 -0.354651 -1.53558 0
M  V30 1333 C 132.799 0.237972 -2.00694 0
M  V30 1334 C 133.12 1.50173 -1.24391 0
M  V30 1335 O 132.39 1.92673 -0.354135 0
M  V30 1336 H 130.97 0.0909256 -0.741446 0
M  V30 1337 H 133.632 -0.478368 -1.88938 0
M  V30 1338 H 132.728 0.47264 -3.085 0
M  V30 1339 N 133.029 1.57378 -0.0835403 0
M  V30 1340 C 133.992 2.12252 0.864959 0
M  V30 1341 C 134.992 1.04916 1.21858 0
M  V30 1342 O 136.182 1.30853 1.14991 0
M  V30 1343 C 133.314 2.63358 2.16461 0
M  V30 1344 H 134.507 2.97371 0.388676 0
M  V30 1345 H 132.06 1.55423 0.165317 0
M  V30 1346 H 132.795 1.81727 2.686 0
M  V30 1347 H 132.58 3.41826 1.92087 0
M  V30 1348 H 134.07 3.05847 2.84337 0
M  V30 1349 N 134.507 -0.190092 1.56449 0
M  V30 1350 C 135.923 -0.54113 1.50146 0
M  V30 1351 C 136.123 -1.85603 0.784465 0
M  V30 1352 O 135.179 -2.5024 0.337051 0
M  V30 1353 C 136.492 -0.591241 2.9483 0
M  V30 1354 C 138.04 -0.679732 3.0553 0
M  V30 1355 C 138.515 -0.760908 4.51635 0
M  V30 1356 N 140.006 -0.824302 4.55806 0
M  V30 1357 C 140.741 -0.907365 5.66175 0
M  V30 1358 N 140.237 -0.952422 6.86222 0
M  V30 1359 N 142.03 -0.94494 5.541 0
M  V30 1360 H 134.181 0.67235 2.01478 0
M  V30 1361 H 136.444 0.240127 0.917084 0
M  V30 1362 H 136.15 0.305905 3.50367 0
M  V30 1363 H 136.024 -1.44422 3.48457 0
M  V30 1364 H 138.411 -1.56731 2.50039 0
M  V30 1365 H 138.492 0.199549 2.5502 0
M  V30 1366 H 138.136 0.122336 5.07753 0
M  V30 1367 H 138.066 -1.65606 4.99882 0
M  V30 1368 H 140.557 -0.798526 3.69367 0
M  V30 1369 H 140.87 -1.01645 7.66086 0
M  V30 1370 H 139.215 -0.921014 6.8887 0
M  V30 1371 H 142.406 -0.906612 4.59236 0
M  V30 1372 H 142.579 -1.00622 6.4014 0
M  V30 1373 N 135.985 -1.50799 -0.457987 0
M  V30 1374 C 137.231 -1.62683 -1.21088 0
M  V30 1375 C 137.564 -0.332268 -1.91336 0
M  V30 1376 O 136.839 0.667043 -1.82704 0
M  V30 1377 C 137.122 -2.81615 -2.24422 0
M  V30 1378 C 136.975 -4.20989 -1.58392 0
M  V30 1379 C 138.294 -2.96085 -3.2561 0
M  V30 1380 H 135.413 -0.592087 -0.438864 0
M  V30 1381 H 138.055 -1.83225 -0.50286 0
M  V30 1382 H 136.205 -2.64231 -2.84806 0
M  V30 1383 H 137.877 -4.49994 -1.01504 0
M  V30 1384 H 136.12 -4.24641 -0.886704 0
M  V30 1385 H 136.791 -5.0016 -2.33547 0
M  V30 1386 H 139.267 -3.12042 -2.75262 0
M  V30 1387 H 138.143 -3.80902 -3.95228 0
M  V30 1388 H 138.404 -2.0726 -3.90507 0
M  V30 1389 N 137.463 0.71206 -1.40597 0
M  V30 1390 C 138.874 1.29135 -1.34837 0
M  V30 1391 C 139.225 1.96186 -0.0235395 0
M  V30 1392 O 138.35 1.97768 0.878444 0
M  V30 1393 C 138.945 2.34827 -2.44217 0
M  V30 1394 C 137.504 2.88371 -2.41907 0
M  V30 1395 C 136.651 1.62202 -2.24913 0
M  V30 1396 H 139.602 0.507944 -1.50352 0
M  V30 1397 H 139.623 3.15749 -2.12327 0
M  V30 1398 H 139.135 1.85996 -3.40627 0
M  V30 1399 H 137.236 3.41422 -1.49204 0
M  V30 1400 H 137.349 3.39925 -3.37621 0
M  V30 1401 H 135.713 1.874 -1.72492 0
M  V30 1402 H 136.496 1.15391 -3.23326 0
M  V30 1403 N 138.941 1.26152 0.944643 0
M  V30 1404 C 139.888 1.07408 2.04285 0
M  V30 1405 C 140.858 -0.0198413 1.66088 0
M  V30 1406 O 142.043 0.139264 1.90291 0
M  V30 1407 C 139.183 0.70945 3.37729 0
M  V30 1408 C 138.296 1.87926 3.88983 0
M  V30 1409 C 137.431 1.45807 5.10797 0
M  V30 1410 C 136.47 2.5964 5.54305 0
M  V30 1411 N 135.607 2.18226 6.67324 0
M  V30 1412 H 140.447 2.01389 2.1965 0
M  V30 1413 H 137.984 1.00275 1.07626 0
M  V30 1414 H 139.942 0.478948 4.14442 0
M  V30 1415 H 138.572 -0.193389 3.2222 0
M  V30 1416 H 137.624 2.22279 3.08701 0
M  V30 1417 H 138.936 2.73377 4.17213 0
M  V30 1418 H 138.09 1.18781 5.94959 0
M  V30 1419 H 136.829 0.574414 4.84305 0
M  V30 1420 H 135.834 2.87399 4.68702 0
M  V30 1421 H 137.059 3.48599 5.828 0
M  V30 1422 H 135.005 1.3229 6.42523 0
M  V30 1423 H 134.922 2.97221 6.95123 0
M  V30 1424 H 136.19 1.94403 7.54869 0
M  V30 1425 N 140.419 -1.14872 1.07899 0
M  V30 1426 C 141.647 -1.89661 0.82683 0
M  V30 1427 C 142.062 -1.78312 -0.620519 0
M  V30 1428 O 141.419 -1.13888 -1.42604 0
M  V30 1429 C 141.47 -3.39817 1.23316 0
M  V30 1430 O 141.191 -3.50845 2.62372 0
M  V30 1431 C 142.692 -4.31615 1.0111 0
M  V30 1432 H 139.912 -0.60092 0.298557 0
M  V30 1433 H 142.456 -1.4551 1.43691 0
M  V30 1434 H 140.611 -3.8161 0.667286 0
M  V30 1435 H 141.025 -4.44076 2.79101 0
M  V30 1436 H 142.499 -5.35367 1.34486 0
M  V30 1437 H 142.976 -4.39169 -0.0522168 0
M  V30 1438 H 143.582 -3.95572 1.56215 0
M  V30 1439 N 141.898 -0.863906 -1.31812 0
M  V30 1440 C 143.146 -0.470904 -1.96537 0
M  V30 1441 C 143.467 0.978771 -1.68657 0
M  V30 1442 O 142.737 1.6853 -0.998717 0
M  V30 1443 H 141.317 -0.171148 -0.72713 0
M  V30 1444 H 143.979 -1.10236 -1.60729 0
M  V30 1445 H 143.075 -0.623616 -3.05806 0
M  V30 1446 N 143.376 1.44774 -0.622745 0
M  V30 1447 C 144.601 2.06999 -0.128968 0
M  V30 1448 C 145.026 1.4617 1.1839 0
M  V30 1449 O 144.384 0.560007 1.72434 0
M  V30 1450 C 144.432 3.60595 -0.0188351 0
M  V30 1451 O 143.536 3.99398 1.02739 0
M  V30 1452 H 142.877 0.659047 -0.0809544 0
M  V30 1453 H 145.407 1.85784 -0.85705 0
M  V30 1454 H 145.417 4.07627 0.174476 0
M  V30 1455 H 144.092 4.04252 -0.977384 0
M  V30 1456 H 142.669 3.64011 0.809326 0
M  V30 1457 N 144.854 0.36279 1.53368 0
M  V30 1458 C 145.817 -0.472679 2.24273 0
M  V30 1459 C 146.817 -1.012 1.24961 0
M  V30 1460 O 148.007 -0.898194 1.49259 0
M  V30 1461 C 145.139 -1.66039 2.97731 0
M  V30 1462 H 146.332 0.14773 2.99536 0
M  V30 1463 H 143.885 0.114434 1.55881 0
M  V30 1464 H 144.62 -2.31896 2.26704 0
M  V30 1465 H 144.405 -1.28066 3.70596 0
M  V30 1466 H 145.895 -2.25252 3.51641 0
M  V30 1467 N 146.332 -1.57332 0.0918853 0
M  V30 1468 C 147.562 -1.98286 -0.580205 0
M  V30 1469 C 147.97 -0.969713 -1.6246 0
M  V30 1470 O 147.313 0.0493501 -1.83634 0
M  V30 1471 C 147.375 -3.35603 -1.28882 0
M  V30 1472 C 147.039 -4.55285 -0.395559 0
M  V30 1473 C 148.036 -5.18687 0.355002 0
M  V30 1474 C 145.721 -5.01314 -0.314556 0
M  V30 1475 C 147.715 -6.26484 1.17458 0
M  V30 1476 C 145.402 -6.08979 0.508677 0
M  V30 1477 C 146.4 -6.71429 1.2519 0
M  V30 1478 O 146.088 -7.77018 2.06151 0
M  V30 1479 H 145.82 -0.656678 -0.160466 0
M  V30 1480 H 148.374 -2.04721 0.16688 0
M  V30 1481 H 146.604 -3.25842 -2.08241 0
M  V30 1482 H 148.293 -3.61026 -1.85512 0
M  V30 1483 H 149.059 -4.84058 0.302134 0
M  V30 1484 H 144.938 -4.5247 -0.882697 0
M  V30 1485 H 148.482 -6.75159 1.75518 0
M  V30 1486 H 144.379 -6.4304 0.563037 0
M  V30 1487 H 145.147 -7.93991 1.98799 0
M  V30 1488 N 147.81 0.181792 -1.56548 0
M  V30 1489 C 148.74 1.22765 -1.98623 0
M  V30 1490 C 149.721 1.46747 -0.860189 0
M  V30 1491 O 150.906 1.58259 -1.12551 0
M  V30 1492 C 148.036 2.56894 -2.33715 0
M  V30 1493 C 146.99 2.475 -3.49182 0
M  V30 1494 C 146.316 3.86023 -3.69986 0
M  V30 1495 C 147.616 1.98866 -4.82959 0
M  V30 1496 H 149.31 0.877942 -2.86239 0
M  V30 1497 H 146.856 0.42088 -1.37712 0
M  V30 1498 H 148.809 3.30253 -2.61746 0
M  V30 1499 H 147.533 2.93632 -1.42997 0
M  V30 1500 H 146.192 1.76596 -3.21262 0
M  V30 1501 H 145.84 4.20136 -2.76576 0
M  V30 1502 H 145.54 3.80609 -4.47672 0
M  V30 1503 H 147.064 4.60984 -4.00407 0
M  V30 1504 H 148.478 2.61992 -5.09934 0
M  V30 1505 H 146.875 2.04424 -5.64208 0
M  V30 1506 H 147.945 0.942465 -4.75653 0
M  V30 1507 N 149.288 1.51039 0.449983 0
M  V30 1508 C 150.518 1.66627 1.22143 0
M  V30 1509 C 150.926 0.357776 1.85786 0
M  V30 1510 O 150.269 -0.672424 1.70951 0
M  V30 1511 C 150.331 2.71562 2.35573 0
M  V30 1512 C 149.995 4.14526 1.92399 0
M  V30 1513 C 150.992 4.99717 1.43453 0
M  V30 1514 C 148.677 4.60559 2.00475 0
M  V30 1515 C 150.671 6.28998 1.03155 0
M  V30 1516 C 148.358 5.8984 1.59788 0
M  V30 1517 C 149.356 6.73886 1.11208 0
M  V30 1518 O 149.044 8.0075 0.710935 0
M  V30 1519 H 148.776 0.562635 0.374724 0
M  V30 1520 H 151.33 1.98146 0.541036 0
M  V30 1521 H 149.56 2.3533 3.06849 0
M  V30 1522 H 151.249 2.76156 2.97478 0
M  V30 1523 H 152.015 4.65361 1.36618 0
M  V30 1524 H 147.894 3.95273 2.37235 0
M  V30 1525 H 151.438 6.9455 0.651663 0
M  V30 1526 H 147.335 6.23713 1.66289 0
M  V30 1527 H 148.103 8.142 0.837913 0
M  V30 1528 N 150.766 -0.704594 1.40972 0
M  V30 1529 C 151.994 -1.49354 1.43182 0
M  V30 1530 C 152.409 -1.88768 0.0345508 0
M  V30 1531 O 151.766 -1.56184 -0.944081 0
M  V30 1532 C 151.817 -2.76187 2.33244 0
M  V30 1533 O 151.538 -2.38436 3.67532 0
M  V30 1534 C 153.039 -3.7 2.44162 0
M  V30 1535 H 150.259 -0.460559 0.487982 0
M  V30 1536 H 152.803 -0.868261 1.85153 0
M  V30 1537 H 150.958 -3.34974 1.94606 0
M  V30 1538 H 151.372 -3.20126 4.15475 0
M  V30 1539 H 152.846 -4.55803 3.11364 0
M  V30 1540 H 153.323 -4.13867 1.47006 0
M  V30 1541 H 153.929 -3.17121 2.83398 0
M  V30 1542 N 152.244 -1.26651 -0.937939 0
M  V30 1543 C 153.474 -1.15006 -1.71631 0
M  V30 1544 C 153.882 0.297026 -1.86854 0
M  V30 1545 O 153.225 1.21493 -1.37786 0
M  V30 1546 C 153.287 -1.74984 -3.14039 0
M  V30 1547 C 152.951 -3.24103 -3.2219 0
M  V30 1548 C 153.948 -4.20877 -3.05219 0
M  V30 1549 C 151.633 -3.64625 -3.45476 0
M  V30 1550 C 153.627 -5.56151 -3.11408 0
M  V30 1551 C 151.314 -5.00032 -3.513 0
M  V30 1552 C 152.312 -5.95604 -3.34282 0
M  V30 1553 O 152 -7.28545 -3.3982 0
M  V30 1554 H 151.732 -0.401183 -0.544085 0
M  V30 1555 H 154.286 -1.67832 -1.18413 0
M  V30 1556 H 152.516 -1.16624 -3.68695 0
M  V30 1557 H 154.205 -1.58199 -3.73802 0
M  V30 1558 H 154.971 -3.90908 -2.87081 0
M  V30 1559 H 150.85 -2.90718 -3.57777 0
M  V30 1560 H 154.394 -6.30727 -2.98043 0
M  V30 1561 H 150.291 -5.29659 -3.68959 0
M  V30 1562 H 151.059 -7.3686 -3.56343 0
M  V30 1563 N 153.722 1.14298 -1.08507 0
M  V30 1564 C 154.968 1.85633 -0.816581 0
M  V30 1565 C 155.301 1.82784 0.656021 0
M  V30 1566 O 154.576 1.25926 1.48233 0
M  V30 1567 C 154.859 3.34223 -1.34041 0
M  V30 1568 C 154.712 3.45639 -2.87843 0
M  V30 1569 C 156.031 4.29356 -0.9665 0
M  V30 1570 H 153.15 0.67402 -0.298104 0
M  V30 1571 H 155.792 1.34214 -1.34487 0
M  V30 1572 H 153.942 3.78144 -0.89104 0
M  V30 1573 H 155.614 3.10498 -3.41158 0
M  V30 1574 H 153.857 2.86817 -3.25451 0
M  V30 1575 H 154.528 4.50089 -3.19569 0
M  V30 1576 H 157.004 3.93457 -1.35391 0
M  V30 1577 H 155.88 5.3178 -1.3602 0
M  V30 1578 H 156.141 4.41919 0.126362 0
M  V30 1579 N 155.201 0.870884 1.31352 0
M  V30 1580 C 156.429 0.49677 2.00848 0
M  V30 1581 C 156.844 -0.910998 1.65367 0
M  V30 1582 O 156.201 -1.59696 0.883374 0
M  V30 1583 C 156.252 0.645308 3.55694 0
M  V30 1584 O 155.973 1.99764 3.89905 0
M  V30 1585 C 157.474 0.272326 4.42463 0
M  V30 1586 H 154.694 0.193462 0.642506 0
M  V30 1587 H 157.238 1.1723 1.67563 0
M  V30 1588 H 155.393 0.0173176 3.87396 0
M  V30 1589 H 155.807 2.00607 4.84621 0
M  V30 1590 H 157.281 0.427208 5.50344 0
M  V30 1591 H 157.758 -0.788587 4.32062 0
M  V30 1592 H 158.364 0.876054 4.1618 0
M  V30 1593 N 156.679 -1.44442 0.630414 0
M  V30 1594 C 157.925 -2.02351 0.134816 0
M  V30 1595 C 158.258 -1.4947 -1.23986 0
M  V30 1596 O 157.533 -0.678475 -1.82283 0
M  V30 1597 C 157.816 -3.59898 0.120707 0
M  V30 1598 C 157.669 -4.23063 1.52767 0
M  V30 1599 C 158.988 -4.36585 -0.555127 0
M  V30 1600 H 156.107 -0.73527 0.0504646 0
M  V30 1601 H 158.749 -1.72022 0.806751 0
M  V30 1602 H 156.899 -3.85868 -0.451477 0
M  V30 1603 H 158.571 -4.08202 2.14869 0
M  V30 1604 H 156.814 -3.80586 2.08175 0
M  V30 1605 H 157.485 -5.32071 1.46984 0
M  V30 1606 H 159.961 -4.16044 -0.0685429 0
M  V30 1607 H 158.837 -5.46294 -0.534185 0
M  V30 1608 H 159.098 -4.11138 -1.62535 0
M  V30 1609 N 158.157 -0.370918 -1.53173 0
M  V30 1610 C 159.405 0.216673 -2.00935 0
M  V30 1611 C 159.726 1.48845 -1.25977 0
M  V30 1612 O 158.996 1.92286 -0.374551 0
M  V30 1613 H 157.576 0.0830565 -0.742368 0
M  V30 1614 H 160.238 -0.49838 -1.8842 0
M  V30 1615 H 159.334 0.439893 -3.08984 0
M  V30 1616 N 159.635 1.57281 -0.100228 0
M  V30 1617 C 160.545 2.17833 0.870965 0
M  V30 1618 C 161.561 1.14921 1.30649 0
M  V30 1619 O 162.737 1.47313 1.37335 0
M  V30 1620 C 159.802 2.75085 2.1102 0
M  V30 1621 C 158.863 3.9297 1.72838 0
M  V30 1622 C 158.096 4.47482 2.90854 0
M  V30 1623 O 158.319 4.00922 4.05731 0
M  V30 1624 O 157.253 5.38433 2.69023 0
M  V30 1625 H 161.079 3.0124 0.38575 0
M  V30 1626 H 158.664 1.48881 0.124397 0
M  V30 1627 H 160.546 3.11656 2.83634 0
M  V30 1628 H 159.221 1.94721 2.58584 0
M  V30 1629 H 158.128 3.61201 0.973883 0
M  V30 1630 H 159.461 4.74713 1.30033 0
M  V30 1631 N 161.113 -0.173488 1.56642 0
M  V30 1632 C 162.043 -1.2171 1.99271 0
M  V30 1633 C 163.024 -1.46289 0.867959 0
M  V30 1634 O 164.209 -1.5766 1.13388 0
M  V30 1635 C 161.339 -2.55651 2.35074 0
M  V30 1636 C 160.293 -2.45645 3.50489 0
M  V30 1637 C 159.619 -3.84056 3.72028 0
M  V30 1638 C 160.919 -1.96302 4.84007 0
M  V30 1639 H 162.613 -0.86275 2.867 0
M  V30 1640 H 160.159 -0.413571 1.37933 0
M  V30 1641 H 162.112 -3.2886 2.63494 0
M  V30 1642 H 160.836 -2.92869 1.44552 0
M  V30 1643 H 159.495 -1.7489 3.22194 0
M  V30 1644 H 159.143 -4.18664 2.788 0
M  V30 1645 H 158.843 -3.7823 4.49684 0
M  V30 1646 H 160.367 -4.58854 4.02846 0
M  V30 1647 H 161.781 -2.59284 5.11317 0
M  V30 1648 H 160.178 -2.01429 5.65284 0
M  V30 1649 H 161.248 -0.917226 4.76146 0
M  V30 1650 N 162.591 -1.51276 -0.441967 0
M  V30 1651 C 163.837 -1.6492 -1.1905 0
M  V30 1652 C 164.192 -0.358731 -1.89026 0
M  V30 1653 O 163.485 0.645193 -1.8041 0
M  V30 1654 C 163.679 -2.78746 -2.23686 0
M  V30 1655 C 163.508 -4.18737 -1.63979 0
M  V30 1656 C 162.278 -4.84739 -1.42674 0
M  V30 1657 C 164.476 -5.01988 -1.11858 0
M  V30 1658 N 162.458 -6.08858 -0.785159 0
M  V30 1659 C 163.829 -6.17071 -0.601989 0
M  V30 1660 C 165.884 -4.87551 -1.0099 0
M  V30 1661 C 164.587 -7.19299 0.0126012 0
M  V30 1662 C 166.613 -5.89983 -0.409206 0
M  V30 1663 C 165.975 -7.04333 0.0968651 0
M  V30 1664 H 162.074 -0.657416 -0.423471 0
M  V30 1665 H 164.658 -1.8849 -0.48782 0
M  V30 1666 H 162.829 -2.56848 -2.91348 0
M  V30 1667 H 164.561 -2.81595 -2.90666 0
M  V30 1668 H 161.316 -4.42528 -1.68719 0
M  V30 1669 H 161.74 -6.75282 -0.481942 0
M  V30 1670 H 166.382 -3.99401 -1.38703 0
M  V30 1671 H 164.1 -8.071 0.401879 0
M  V30 1672 H 167.686 -5.8088 -0.327079 0
M  V30 1673 H 166.566 -7.82238 0.554373 0
M  V30 1674 N 164.069 0.697108 -1.41344 0
M  V30 1675 C 165.032 1.79281 -1.42797 0
M  V30 1676 C 166.032 1.57607 -0.318837 0
M  V30 1677 O 167.222 1.64309 -0.578642 0
M  V30 1678 C 164.354 3.17632 -1.23785 0
M  V30 1679 H 165.547 1.79385 -2.40335 0
M  V30 1680 H 163.1 0.904582 -1.27464 0
M  V30 1681 H 163.835 3.23167 -0.270814 0
M  V30 1682 H 163.62 3.34765 -2.04144 0
M  V30 1683 H 165.11 3.97617 -1.27633 0
M  V30 1684 N 165.547 1.27147 0.931209 0
M  V30 1685 C 166.794 1.13278 1.67852 0
M  V30 1686 C 167.122 -0.32204 1.91815 0
M  V30 1687 O 166.377 -1.25224 1.50391 0
M  V30 1688 C 166.676 1.8579 3.05314 0
M  V30 1689 C 166.342 3.35657 3.01073 0
M  V30 1690 C 165.004 3.76536 2.99623 0
M  V30 1691 C 167.356 4.31299 2.92627 0
M  V30 1692 C 164.684 5.11426 2.87506 0
M  V30 1693 C 167.036 5.66242 2.82051 0
M  V30 1694 C 165.7 6.06418 2.7895 0
M  V30 1695 H 164.97 0.414515 0.614214 0
M  V30 1696 H 167.617 1.57712 1.08624 0
M  V30 1697 H 165.922 1.33854 3.68226 0
M  V30 1698 H 167.619 1.72491 3.62005 0
M  V30 1699 H 164.209 3.03146 3.02986 0
M  V30 1700 H 168.393 4.00692 2.92848 0
M  V30 1701 H 163.649 5.41705 2.83489 0
M  V30 1702 H 167.823 6.40026 2.74481 0
M  V30 1703 H 165.45 7.10895 2.69318 0
M  V30 1704 N 167.025 -1.13721 1.09112 0
M  V30 1705 C 168.274 -1.84275 0.82009 0
M  V30 1706 C 168.587 -1.84253 -0.656509 0
M  V30 1707 O 169.793 -2.50668 -1.04296 0
M  V30 1708 C 168.249 -3.30825 1.41714 0
M  V30 1709 C 167.857 -3.39244 2.92605 0
M  V30 1710 C 169.601 -4.06443 1.22492 0
M  V30 1711 C 167.508 -4.80047 3.45411 0
M  V30 1712 H 166.438 -0.690387 0.30312 0
M  V30 1713 H 169.089 -1.28146 1.31343 0
M  V30 1714 H 167.471 -3.86737 0.851498 0
M  V30 1715 H 168.645 -2.93344 3.55367 0
M  V30 1716 H 166.96 -2.77088 3.10823 0
M  V30 1717 H 169.557 -5.10387 1.59402 0
M  V30 1718 H 169.9 -4.15972 0.165299 0
M  V30 1719 H 170.433 -3.56852 1.75788 0
M  V30 1720 H 167.172 -4.75709 4.50978 0
M  V30 1721 H 166.692 -5.26455 2.87411 0
M  V30 1722 H 168.371 -5.48957 3.42425 0
M  V30 1723 N 168.503 -0.877838 -1.30888 0
M  V30 1724 C 169.731 -0.507414 -2.00581 0
M  V30 1725 C 170.146 0.902216 -1.65848 0
M  V30 1726 O 169.503 1.59225 -0.891831 0
M  V30 1727 C 169.554 -0.664162 -3.55347 0
M  V30 1728 O 169.275 -2.01829 -3.8884 0
M  V30 1729 C 170.776 -0.295787 -4.42312 0
M  V30 1730 H 167.996 -0.196866 -0.641471 0
M  V30 1731 H 170.54 -1.18117 -1.66939 0
M  V30 1732 H 168.695 -0.0378619 -3.87381 0
M  V30 1733 H 169.109 -2.03174 -4.8355 0
M  V30 1734 H 170.583 -0.456388 -5.5011 0
M  V30 1735 H 171.06 0.765663 -4.32475 0
M  V30 1736 H 171.666 -0.898113 -4.15709 0
M  V30 1737 N 169.982 1.44106 -0.638065 0
M  V30 1738 C 171.23 2.01579 -0.145043 0
M  V30 1739 C 171.551 1.50496 1.24 0
M  V30 1740 O 170.821 0.711374 1.82527 0
M  V30 1741 H 169.401 0.745282 -0.05063 0
M  V30 1742 H 172.063 1.76516 -0.826327 0
M  V30 1743 H 171.159 3.11877 -0.118039 0
M  V30 1744 N 171.46 0.379036 1.52974 0
M  V30 1745 C 172.706 -0.199244 2.02422 0
M  V30 1746 C 173.061 -1.4532 1.26095 0
M  V30 1747 O 172.354 -1.88377 0.34996 0
M  V30 1748 C 172.548 -0.53096 3.53434 0
M  V30 1749 C 172.377 0.689298 4.44386 0
M  V30 1750 C 171.147 1.20546 4.9071 0
M  V30 1751 C 173.345 1.55856 4.90116 0
M  V30 1752 N 171.327 2.38434 5.65705 0
M  V30 1753 C 172.698 2.58396 5.63588 0
M  V30 1754 C 174.753 1.57986 4.7217 0
M  V30 1755 C 173.456 3.62939 6.21022 0
M  V30 1756 C 175.482 2.6143 5.30479 0
M  V30 1757 C 174.844 3.62693 6.03849 0
M  V30 1758 H 170.943 -0.0352671 0.781204 0
M  V30 1759 H 173.527 0.526614 1.87443 0
M  V30 1760 H 171.698 -1.22588 3.68547 0
M  V30 1761 H 173.43 -1.0955 3.89591 0
M  V30 1762 H 170.185 0.768022 4.67331 0
M  V30 1763 H 170.609 2.98055 6.07859 0
M  V30 1764 H 175.251 0.810475 4.14959 0
M  V30 1765 H 172.969 4.40751 6.77321 0
M  V30 1766 H 176.555 2.63949 5.18481 0
M  V30 1767 H 175.435 4.41424 6.48163 0
M  V30 1768 N 172.938 -1.57226 0.108567 0
M  V30 1769 C 173.886 -2.16002 -0.862885 0
M  V30 1770 C 174.88 -1.10644 -1.28274 0
M  V30 1771 O 176.086 -1.28966 -1.2557 0
M  V30 1772 H 172.461 -0.691148 -0.296342 0
M  V30 1773 H 174.432 -2.96427 -0.342575 0
M  V30 1774 C 173.181 -2.76576 -2.10716 0
M  V30 1775 H 172.504 -3.5734 -1.793 0
M  V30 1776 H 173.944 -3.21253 -2.76717 0
M  V30 1777 C 172.403 -1.73137 -2.89007 0
M  V30 1778 O 172.933 -1.17842 -3.84026 0
M  V30 1779 N 171.139 -1.43317 -2.52801 0
M  V30 1780 H 170.686 -1.88473 -1.75601 0
M  V30 1781 H 170.644 -0.743485 -3.05483 0
M  V30 1782 N 174.416 0.165178 -1.56732 0
M  V30 1783 C 175.346 1.20651 -1.99914 0
M  V30 1784 C 176.327 1.45827 -0.875705 0
M  V30 1785 O 177.512 1.57057 -1.14223 0
M  V30 1786 C 174.642 2.54401 -2.36427 0
M  V30 1787 C 173.596 2.43782 -3.51787 0
M  V30 1788 C 172.922 3.82078 -3.7406 0
M  V30 1789 C 174.222 1.93732 -4.85041 0
M  V30 1790 H 175.916 0.847534 -2.87154 0
M  V30 1791 H 173.462 0.40625 -1.38151 0
M  V30 1792 H 175.415 3.27458 -2.65234 0
M  V30 1793 H 174.139 2.92098 -1.46103 0
M  V30 1794 H 172.798 1.73178 -3.23117 0
M  V30 1795 H 172.446 4.17179 -2.81017 0
M  V30 1796 H 172.146 3.7584 -4.51684 0
M  V30 1797 H 173.67 4.56712 -4.05274 0
M  V30 1798 H 175.084 2.56569 -5.12684 0
M  V30 1799 H 173.481 1.98428 -5.66345 0
M  V30 1800 H 174.551 0.891962 -4.76626 0
M  V30 1801 N 175.894 1.51508 0.433938 0
M  V30 1802 C 177.143 1.63578 1.18005 0
M  V30 1803 C 177.456 0.359514 1.92268 0
M  V30 1804 O 178.662 0.359632 2.69108 0
M  V30 1805 C 177.118 2.88901 2.14626 0
M  V30 1806 C 176.726 4.23544 1.45995 0
M  V30 1807 C 178.47 3.10328 2.89649 0
M  V30 1808 C 176.377 5.40014 2.4112 0
M  V30 1809 H 175.307 0.609277 0.444182 0
M  V30 1810 H 177.958 1.77978 0.446773 0
M  V30 1811 H 176.34 2.68142 2.91403 0
M  V30 1812 H 177.514 4.54696 0.747532 0
M  V30 1813 H 175.829 4.08021 0.831115 0
M  V30 1814 H 178.426 3.94518 3.60915 0
M  V30 1815 H 178.769 2.23544 3.51189 0
M  V30 1816 H 179.302 3.31443 2.19978 0
M  V30 1817 H 176.041 6.29068 1.84264 0
M  V30 1818 H 175.561 5.13233 3.10406 0
M  V30 1819 H 177.24 5.72099 3.02177 0
M  V30 1820 N 177.372 -0.689602 1.41712 0
M  V30 1821 C 178.302 -1.81577 1.46806 0
M  V30 1822 C 179.283 -1.66945 0.326105 0
M  V30 1823 O 180.468 -1.86588 0.538377 0
M  V30 1824 C 177.598 -3.19762 1.35535 0
M  V30 1825 C 176.552 -3.49107 2.47605 0
M  V30 1826 C 175.878 -4.86711 2.21397 0
M  V30 1827 C 177.178 -3.47483 3.89939 0
M  V30 1828 H 178.872 -1.7757 2.41058 0
M  V30 1829 H 176.418 -0.852887 1.16025 0
M  V30 1830 H 178.371 -3.98263 1.3771 0
M  V30 1831 H 177.095 -3.24409 0.377708 0
M  V30 1832 H 175.754 -2.72959 2.44722 0
M  V30 1833 H 175.402 -4.8799 1.21961 0
M  V30 1834 H 175.102 -5.0731 2.96497 0
M  V30 1835 H 176.626 -5.67515 2.25297 0
M  V30 1836 H 178.04 -4.1598 3.94505 0
M  V30 1837 H 176.437 -3.79615 4.64771 0
M  V30 1838 H 177.507 -2.46341 4.17665 0
M  V30 1839 N 178.85 -1.27639 -0.924453 0
M  V30 1840 C 180.075 -1.17101 -1.71179 0
M  V30 1841 C 180.5 0.268134 -1.86179 0
M  V30 1842 O 179.858 1.19415 -1.36418 0
M  V30 1843 C 179.906 -1.86313 -3.08739 0
M  V30 1844 O 179.01 -1.16331 -3.95652 0
M  V30 1845 H 178.351 -0.407091 -0.524569 0
M  V30 1846 H 180.881 -1.68767 -1.15666 0
M  V30 1847 H 180.891 -1.938 -3.59034 0
M  V30 1848 H 179.566 -2.91001 -2.97138 0
M  V30 1849 H 178.143 -1.16935 -3.54091 0
M  V30 1850 N 180.328 1.1314 -1.09713 0
M  V30 1851 C 181.558 1.88048 -0.855656 0
M  V30 1852 C 181.966 1.79537 0.596919 0
M  V30 1853 O 181.309 1.16196 1.42282 0
M  V30 1854 C 181.371 3.38314 -1.21589 0
M  V30 1855 C 181.035 3.70605 -2.67397 0
M  V30 1856 C 182.032 3.69596 -3.65643 0
M  V30 1857 C 179.717 4.0017 -3.03593 0
M  V30 1858 C 181.711 3.977 -4.9811 0
M  V30 1859 C 179.398 4.27935 -4.36251 0
M  V30 1860 C 180.396 4.26685 -5.33318 0
M  V30 1861 O 180.084 4.53767 -6.63589 0
M  V30 1862 H 179.816 0.60208 -0.307368 0
M  V30 1863 H 182.37 1.44128 -1.46343 0
M  V30 1864 H 180.6 3.82752 -0.551177 0
M  V30 1865 H 182.289 3.94552 -0.953083 0
M  V30 1866 H 183.055 3.46826 -3.39023 0
M  V30 1867 H 178.934 4.00289 -2.2867 0
M  V30 1868 H 182.478 3.9664 -5.73866 0
M  V30 1869 H 178.375 4.50178 -4.62613 0
M  V30 1870 H 179.143 4.71422 -6.69107 0
M  V30 1871 N 181.806 0.884767 1.30421 0
M  V30 1872 C 183.052 0.503851 1.96441 0
M  V30 1873 C 183.385 -0.944518 1.69684 0
M  V30 1874 O 182.66 -1.66737 1.00145 0
M  V30 1875 C 182.943 0.779085 3.51571 0
M  V30 1876 C 182.796 2.27807 3.87846 0
M  V30 1877 C 184.115 0.255452 4.39358 0
M  V30 1878 H 181.234 0.184533 0.713524 0
M  V30 1879 H 183.876 1.10872 1.54297 0
M  V30 1880 H 182.026 0.264274 3.876 0
M  V30 1881 H 183.698 2.86127 3.61841 0
M  V30 1882 H 181.941 2.74479 3.35922 0
M  V30 1883 H 182.612 2.42125 4.96064 0
M  V30 1884 H 185.088 0.696079 4.10236 0
M  V30 1885 H 183.964 0.477361 5.4682 0
M  V30 1886 H 184.225 -0.843293 4.33983 0
M  V30 1887 N 183.284 -1.43765 0.645699 0
M  V30 1888 C 184.533 -2.01116 0.153412 0
M  V30 1889 C 184.846 -1.51493 -1.23731 0
M  V30 1890 O 186.052 -2.01067 -1.8244 0
M  V30 1891 C 184.508 -3.59206 0.223473 0
M  V30 1892 C 184.116 -4.17823 1.61642 0
M  V30 1893 C 185.86 -4.23972 -0.211597 0
M  V30 1894 C 183.767 -5.68183 1.64081 0
M  V30 1895 H 182.697 -0.752093 0.0535891 0
M  V30 1896 H 185.348 -1.6482 0.806633 0
M  V30 1897 H 183.73 -3.92867 -0.497118 0
M  V30 1898 H 184.904 -3.95674 2.36176 0
M  V30 1899 H 183.219 -3.65399 1.99681 0
M  V30 1900 H 185.816 -5.34275 -0.213112 0
M  V30 1901 H 186.159 -3.97352 -1.24165 0
M  V30 1902 H 186.692 -3.95166 0.456988 0
M  V30 1903 H 183.431 -5.99559 2.64971 0
M  V30 1904 H 182.951 -5.9241 0.938611 0
M  V30 1905 H 184.63 -6.32085 1.3812 0
M  V30 1906 N 184.763 -0.387143 -1.52771 0
M  V30 1907 C 186.011 0.195349 -2.01154 0
M  V30 1908 C 186.332 1.475 -1.27549 0
M  V30 1909 O 185.602 1.91878 -0.394924 0
M  V30 1910 H 184.182 0.075178 -0.743207 0
M  V30 1911 H 186.844 -0.518337 -1.87881 0
M  V30 1912 H 185.94 0.407096 -3.09434 0
M  V30 1913 N 186.241 1.57166 -0.116904 0
M  V30 1914 C 187.469 1.99473 0.549383 0
M  V30 1915 C 187.884 0.996541 1.60357 0
M  V30 1916 O 187.241 -0.0108731 1.82497 0
M  V30 1917 C 187.292 3.41788 1.17741 0
M  V30 1918 O 187.013 4.37788 0.165362 0
M  V30 1919 C 188.514 3.99216 1.92722 0
M  V30 1920 H 185.734 0.655009 0.145616 0
M  V30 1921 H 188.278 2.03494 -0.202625 0
M  V30 1922 H 186.433 3.38713 1.88021 0
M  V30 1923 H 186.847 5.20806 0.621403 0
M  V30 1924 H 188.321 5.00882 2.31995 0
M  V30 1925 H 188.798 3.3824 2.80161 0
M  V30 1926 H 189.404 4.0583 1.27209 0
M  V30 1927 N 187.719 -0.156864 1.56817 0
M  V30 1928 C 188.944 -0.890331 1.87318 0
M  V30 1929 C 189.369 -1.74394 0.704855 0
M  V30 1930 O 188.727 -1.77972 -0.345786 0
M  V30 1931 C 188.775 -1.73102 3.16336 0
M  V30 1932 O 187.879 -2.83422 2.99576 0
M  V30 1933 H 187.22 -0.24857 0.615718 0
M  V30 1934 H 189.75 -0.150649 2.04045 0
M  V30 1935 H 189.76 -2.12803 3.48107 0
M  V30 1936 H 188.435 -1.10412 4.00976 0
M  V30 1937 H 187.012 -2.47199 2.7919 0
M  V30 1938 N 189.197 -1.51736 -0.425897 0
M  V30 1939 C 190.422 -1.69082 -1.20108 0
M  V30 1940 C 190.847 -0.392398 -1.83962 0
M  V30 1941 O 190.205 0.64858 -1.69302 0
M  V30 1942 C 190.253 -2.81604 -2.25237 0
M  V30 1943 O 189.357 -2.46004 -3.30992 0
M  V30 1944 H 188.698 -0.563408 -0.35138 0
M  V30 1945 H 191.228 -1.98358 -0.501512 0
M  V30 1946 H 191.238 -3.06025 -2.69838 0
M  V30 1947 H 189.913 -3.75817 -1.78142 0
M  V30 1948 H 188.49 -2.32195 -2.91787 0
M  V30 1949 N 190.675 0.682077 -1.42076 0
M  V30 1950 C 191.921 1.44428 -1.42367 0
M  V30 1951 C 192.254 1.94164 -0.0373056 0
M  V30 1952 O 191.529 1.70429 0.937239 0
M  V30 1953 C 191.812 2.64654 -2.44194 0
M  V30 1954 C 191.665 2.20596 -3.91991 0
M  V30 1955 C 192.984 3.66865 -2.431 0
M  V30 1956 H 190.103 0.523834 -0.518428 0
M  V30 1957 H 192.745 0.77576 -1.73442 0
M  V30 1958 H 190.895 3.2169 -2.17826 0
M  V30 1959 H 192.567 1.68783 -4.29313 0
M  V30 1960 H 190.81 1.52242 -4.06208 0
M  V30 1961 H 191.481 3.06921 -4.58807 0
M  V30 1962 H 193.957 3.19531 -2.66532 0
M  V30 1963 H 192.833 4.48577 -3.16339 0
M  V30 1964 H 193.094 4.17493 -1.45437 0
M  V30 1965 N 192.153 1.28127 0.917671 0
M  V30 1966 C 193.116 1.11744 2.00115 0
M  V30 1967 C 194.116 0.0583052 1.60694 0
M  V30 1968 O 195.306 0.303755 1.71531 0
M  V30 1969 C 192.438 0.704862 3.33533 0
M  V30 1970 H 193.631 2.07966 2.16079 0
M  V30 1971 H 191.184 1.11058 1.09981 0
M  V30 1972 H 191.919 -0.258299 3.2327 0
M  V30 1973 H 191.704 1.4699 3.63505 0
M  V30 1974 H 193.194 0.612768 4.1308 0
M  V30 1975 N 193.631 -1.12557 1.10312 0
M  V30 1976 C 195.047 -1.36036 0.834649 0
M  V30 1977 C 195.247 -1.93946 -0.546539 0
M  V30 1978 O 194.303 -2.16484 -1.29966 0
M  V30 1979 C 195.616 -2.30312 1.9333 0
M  V30 1980 C 197.164 -2.43906 1.9616 0
M  V30 1981 C 197.639 -3.41496 3.05195 0
M  V30 1982 N 199.13 -3.49053 3.04494 0
M  V30 1983 C 199.865 -4.24471 3.85502 0
M  V30 1984 N 199.361 -5.02966 4.76442 0
M  V30 1985 N 201.154 -4.19864 3.73725 0
M  V30 1986 H 193.305 -0.733246 1.99342 0
M  V30 1987 H 195.568 -0.385234 0.866198 0
M  V30 1988 H 195.274 -1.94933 2.92735 0
M  V30 1989 H 195.148 -3.30421 1.81939 0
M  V30 1990 H 197.535 -2.78567 0.973886 0
M  V30 1991 H 197.616 -1.4369 2.11629 0
M  V30 1992 H 197.26 -3.07565 4.04186 0
M  V30 1993 H 197.19 -4.41539 2.86968 0
M  V30 1994 H 199.681 -2.93053 2.38596 0
M  V30 1995 H 199.994 -5.57846 5.34815 0
M  V30 1996 H 198.339 -5.02167 4.80472 0
M  V30 1997 H 201.53 -3.57623 3.02032 0
M  V30 1998 H 201.703 -4.78386 4.37093 0
M  V30 1999 N 195.109 -0.891671 -1.2995 0
M  V30 2000 C 196.072 -0.36828 -2.26222 0
M  V30 2001 C 197.072 0.493014 -1.53056 0
M  V30 2002 O 198.262 0.299213 -1.71611 0
M  V30 2003 C 195.394 0.47442 -3.37583 0
M  V30 2004 H 196.587 -1.21844 -2.74033 0
M  V30 2005 H 194.14 -0.669107 -1.41254 0
M  V30 2006 H 194.875 1.34489 -2.95099 0
M  V30 2007 H 194.66 -0.142615 -3.91841 0
M  V30 2008 H 196.15 0.83218 -4.09224 0
M  V30 2009 N 196.587 1.43421 -0.653314 0
M  V30 2010 C 197.833 2.02641 -0.175593 0
M  V30 2011 C 198.188 1.5062 1.19713 0
M  V30 2012 O 197.481 0.689697 1.78756 0
M  V30 2013 C 197.675 3.57176 -0.126623 0
M  V30 2014 C 197.504 4.24191 -1.49306 0
M  V30 2015 C 196.274 4.60257 -2.08547 0
M  V30 2016 C 198.472 4.53193 -2.43148 0
M  V30 2017 N 196.454 5.12345 -3.38194 0
M  V30 2018 C 197.825 5.06601 -3.57429 0
M  V30 2019 C 199.88 4.35161 -2.41949 0
M  V30 2020 C 198.583 5.43875 -4.70736 0
M  V30 2021 C 200.609 4.73498 -3.54336 0
M  V30 2022 C 199.971 5.27039 -4.67343 0
M  V30 2023 H 196.07 0.77441 -0.108686 0
M  V30 2024 H 198.654 1.74596 -0.861638 0
M  V30 2025 H 196.825 3.84784 0.528766 0
M  V30 2026 H 198.557 4.03078 0.36198 0
M  V30 2027 H 195.312 4.45302 -1.61255 0
M  V30 2028 H 195.736 5.42842 -4.04538 0
M  V30 2029 H 200.378 3.9304 -1.55818 0
M  V30 2030 H 198.096 5.8494 -5.57558 0
M  V30 2031 H 201.682 4.61241 -3.5461 0
M  V30 2032 H 200.562 5.56153 -5.52868 0
M  V30 2033 N 198.065 0.39524 1.52563 0
M  V30 2034 C 199.29 -0.187456 2.06551 0
M  V30 2035 C 199.715 -1.39249 1.26457 0
M  V30 2036 O 199.073 -1.78947 0.291151 0
M  V30 2037 C 199.121 -0.529985 3.56684 0
M  V30 2038 O 198.225 -1.62307 3.79118 0
M  V30 2039 H 197.566 -0.0202537 0.663691 0
M  V30 2040 H 200.096 0.564426 1.96661 0
M  V30 2041 H 200.106 -0.792598 4.00227 0
M  V30 2042 H 198.781 0.350987 4.14416 0
M  V30 2043 H 197.358 -1.3537 3.47461 0
M  V30 2044 N 199.544 -1.57102 0.125237 0
M  V30 2045 C 200.792 -1.95021 -0.530198 0
M  V30 2046 C 201.113 -1.00982 -1.66816 0
M  V30 2047 O 200.383 -0.0672693 -1.95784 0
M  V30 2048 H 198.963 -0.720046 -0.198853 0
M  V30 2049 H 201.625 -1.93916 0.19564 0
M  V30 2050 H 200.721 -2.98211 -0.920681 0
M  V30 2051 N 201.022 0.148545 -1.56898 0
M  V30 2052 C 202.25 0.876389 -1.87422 0
M  V30 2053 C 202.665 1.74809 -0.713256 0
M  V30 2054 O 202.022 1.79725 0.317025 0
M  V30 2055 C 202.073 1.73438 -3.17178 0
M  V30 2056 O 201.794 0.897809 -4.28802 0
M  V30 2057 C 203.295 2.56993 -3.61205 0
M  V30 2058 H 200.515 0.253489 -0.621277 0
M  V30 2059 H 203.059 0.141798 -2.04008 0
M  V30 2060 H 201.214 2.42205 -3.0235 0
M  V30 2061 H 201.628 1.48672 -5.02988 0
M  V30 2062 H 203.102 3.12773 -4.54838 0
M  V30 2063 H 203.579 3.32958 -2.86419 0
M  V30 2064 H 204.185 1.9352 -3.78722 0
M  V30 2065 N 202.5 1.5196 0.417844 0
M  V30 2066 C 203.747 1.65591 1.16559 0
M  V30 2067 C 204.075 0.381565 1.90721 0
M  V30 2068 O 203.33 -0.635156 1.85106 0
M  V30 2069 C 203.629 2.82269 2.19223 0
M  V30 2070 C 203.295 4.20819 1.61933 0
M  V30 2071 C 201.957 4.58506 1.46033 0
M  V30 2072 C 204.309 5.07196 1.20008 0
M  V30 2073 C 201.637 5.80257 0.867113 0
M  V30 2074 C 203.989 6.29544 0.621086 0
M  V30 2075 C 202.653 6.65987 0.449144 0
M  V30 2076 H 201.923 0.605939 0.42652 0
M  V30 2077 H 204.57 1.86041 0.45397 0
M  V30 2078 H 202.875 2.56118 2.96498 0
M  V30 2079 H 204.572 2.90012 2.76936 0
M  V30 2080 H 201.162 3.91116 1.7529 0
M  V30 2081 H 205.346 4.7867 1.31105 0
M  V30 2082 H 200.602 6.07124 0.721833 0
M  V30 2083 H 204.776 6.95805 0.287798 0
M  V30 2084 H 202.403 7.60199 -0.012632 0
M  V30 2085 N 203.978 -0.674533 1.42435 0
M  V30 2086 C 205.255 -1.4305 1.33402 0
M  V30 2087 C 205.635 -2.11081 -0.0284674 0
M  V30 2088 O 204.983 -2.03257 -1.04397 0
M  V30 2089 C 205.193 -2.43272 2.50239 0
M  V30 2090 C 206.541 -3.07907 2.92367 0
M  V30 2091 O 207.565 -2.53599 2.50132 0
M  V30 2092 O 206.424 -4.0632 3.65467 0
M  V30 2093 H 203.518 -0.638076 0.526106 0
M  V30 2094 H 206.064 -0.703235 1.54443 0
M  V30 2095 H 204.836 -1.91803 3.41068 0
M  V30 2096 H 204.459 -3.23479 2.31186 0
M  V30 2097 N 205.456 -1.28612 -0.910864 0
M  V30 2098 C 206.366 -1.14643 -2.0468 0
M  V30 2099 C 207.382 -0.0723121 -1.7385 0
M  V30 2100 O 208.558 -0.282178 -1.99413 0
M  V30 2101 C 205.623 -0.812561 -3.37044 0
M  V30 2102 C 204.684 -1.96935 -3.81465 0
M  V30 2103 C 203.917 -1.65131 -5.07511 0
M  V30 2104 O 204.14 -0.567013 -5.67575 0
M  V30 2105 O 203.074 -2.49585 -5.47714 0
M  V30 2106 H 206.9 -2.1001 -2.19384 0
M  V30 2107 H 204.485 -1.07958 -1.03274 0
M  V30 2108 H 206.367 -0.640441 -4.16505 0
M  V30 2109 H 205.042 0.111426 -3.23508 0
M  V30 2110 H 203.949 -2.19664 -3.02818 0
M  V30 2111 H 205.282 -2.87414 -3.99567 0
M  V30 2112 N 206.934 1.1197 -1.10907 0
M  V30 2113 C 207.864 2.19928 -0.784473 0
M  V30 2114 C 208.845 1.6833 0.244726 0
M  V30 2115 O 210.03 1.93892 0.109418 0
M  V30 2116 C 207.16 3.46597 -0.220827 0
M  V30 2117 C 206.114 4.11376 -1.18127 0
M  V30 2118 C 205.44 5.32554 -0.478594 0
M  V30 2119 C 206.74 4.56945 -2.52979 0
M  V30 2120 H 208.434 2.47337 -1.68715 0
M  V30 2121 H 205.98 1.18879 -0.812642 0
M  V30 2122 H 207.933 4.21396 0.0184278 0
M  V30 2123 H 206.657 3.1863 0.717113 0
M  V30 2124 H 205.316 3.38564 -1.40606 0
M  V30 2125 H 204.964 5.00856 0.463976 0
M  V30 2126 H 204.664 5.76844 -1.11912 0
M  V30 2127 H 206.188 6.10096 -0.248 0
M  V30 2128 H 207.602 5.23093 -2.3462 0
M  V30 2129 H 205.999 5.1203 -3.12962 0
M  V30 2130 H 207.069 3.70676 -3.12614 0
M  V30 2131 N 208.412 0.89855 1.29475 0
M  V30 2132 C 209.342 0.39201 2.30186 0
M  V30 2133 C 210.323 -0.532359 1.61555 0
M  V30 2134 O 211.508 -0.443331 1.89072 0
M  V30 2135 C 208.638 -0.382353 3.45189 0
M  V30 2136 C 207.592 0.451483 4.25612 0
M  V30 2137 C 206.918 -0.450307 5.328 0
M  V30 2138 C 208.218 1.70079 4.93832 0
M  V30 2139 H 209.912 1.23362 2.72804 0
M  V30 2140 H 207.458 0.594638 1.31149 0
M  V30 2141 H 209.411 -0.747451 4.14718 0
M  V30 2142 H 208.135 -1.25774 3.01411 0
M  V30 2143 H 206.794 0.798897 3.57789 0
M  V30 2144 H 206.442 -1.32379 4.85268 0
M  V30 2145 H 206.142 0.103902 5.87508 0
M  V30 2146 H 207.666 -0.811623 6.05182 0
M  V30 2147 H 209.08 1.40549 5.55805 0
M  V30 2148 H 207.477 2.19623 5.58467 0
M  V30 2149 H 208.547 2.43744 4.19186 0
M  V30 2150 N 209.89 -1.43072 0.660911 0
M  V30 2151 C 211.115 -2.06584 0.183805 0
M  V30 2152 C 211.54 -1.49257 -1.14472 0
M  V30 2153 O 210.898 -0.605528 -1.70889 0
M  V30 2154 C 210.946 -3.60418 0.114434 0
M  V30 2155 O 210.05 -4.01981 -0.921137 0
M  V30 2156 H 209.391 -0.656669 0.0983994 0
M  V30 2157 H 211.921 -1.83447 0.906006 0
M  V30 2158 H 211.931 -4.07946 -0.0663394 0
M  V30 2159 H 210.606 -4.01519 1.08422 0
M  V30 2160 H 209.183 -3.66029 -0.71253 0
M  V30 2161 N 211.368 -0.403325 -1.52352 0
M  V30 2162 C 212.315 0.425011 -2.26853 0
M  V30 2163 C 213.285 1.04598 -1.29029 0
M  V30 2164 O 214.47 1.07135 -1.57882 0
M  V30 2165 C 211.61 1.53888 -3.08889 0
M  V30 2166 C 210.723 0.939396 -4.21663 0
M  V30 2167 C 209.858 2.02547 -4.91068 0
M  V30 2168 C 208.897 1.40263 -5.95813 0
M  V30 2169 N 208.034 2.4286 -6.58759 0
M  V30 2170 H 212.874 -0.21674 -2.97211 0
M  V30 2171 H 210.411 -0.118722 -1.4662 0
M  V30 2172 H 212.369 2.19558 -3.54753 0
M  V30 2173 H 210.999 2.15074 -2.40714 0
M  V30 2174 H 210.051 0.171898 -3.80011 0
M  V30 2175 H 211.363 0.44436 -4.96817 0
M  V30 2176 H 210.517 2.75958 -5.40308 0
M  V30 2177 H 209.256 2.55415 -4.15469 0
M  V30 2178 H 208.261 0.653833 -5.45898 0
M  V30 2179 H 209.486 0.881719 -6.73352 0
M  V30 2180 H 207.432 2.94871 -5.85992 0
M  V30 2181 H 207.349 1.98152 -7.2957 0
M  V30 2182 H 208.617 3.15858 -7.12639 0
M  V30 2183 N 212.846 1.57033 -0.133567 0
M  V30 2184 C 213.778 2.13176 0.841944 0
M  V30 2185 C 214.791 1.07794 1.22001 0
M  V30 2186 O 215.98 1.35117 1.16643 0
M  V30 2187 C 213.08 2.62847 2.13926 0
M  V30 2188 C 212.253 3.92486 1.93064 0
M  V30 2189 C 211.312 4.27605 3.0666 0
M  V30 2190 O 210.338 4.96168 2.78937 0
M  V30 2191 N 211.54 3.861 4.33483 0
M  V30 2192 H 214.305 2.97503 0.362192 0
M  V30 2193 H 211.866 1.61821 0.05042 0
M  V30 2194 H 213.858 2.83363 2.88942 0
M  V30 2195 H 212.428 1.83319 2.53205 0
M  V30 2196 H 211.648 3.80732 1.02159 0
M  V30 2197 H 212.936 4.77225 1.76447 0
M  V30 2198 H 212.334 3.30828 4.58878 0
M  V30 2199 H 210.891 4.11694 5.05323 0
M  V30 2200 N 214.325 -0.140222 1.56975 0
M  V30 2201 C 215.574 -0.850152 1.82908 0
M  V30 2202 C 215.887 -1.82028 0.715892 0
M  V30 2203 O 217.093 -2.57485 0.861016 0
M  V30 2204 C 215.549 -1.5625 3.24213 0
M  V30 2205 C 215.157 -0.63443 4.43485 0
M  V30 2206 C 216.901 -2.25881 3.59413 0
M  V30 2207 C 214.808 -1.34879 5.75814 0
M  V30 2208 H 213.738 -0.321221 0.682153 0
M  V30 2209 H 216.389 -0.102874 1.83211 0
M  V30 2210 H 214.771 -2.35565 3.18316 0
M  V30 2211 H 215.945 0.12398 4.60633 0
M  V30 2212 H 214.26 -0.0461836 4.16374 0
M  V30 2213 H 216.857 -2.79978 4.5554 0
M  V30 2214 H 217.2 -3.02693 2.85802 0
M  V30 2215 H 217.733 -1.53477 3.67001 0
M  V30 2216 H 214.472 -0.622385 6.52539 0
M  V30 2217 H 213.992 -2.07974 5.6259 0
M  V30 2218 H 215.671 -1.88784 6.18845 0
M  V30 2219 N 215.803 -1.52179 -0.40978 0
M  V30 2220 C 217.051 -1.65878 -1.15451 0
M  V30 2221 C 217.372 -0.390771 -1.91044 0
M  V30 2222 O 216.642 0.594323 -1.86667 0
M  V30 2223 H 215.222 -0.611405 -0.429177 0
M  V30 2224 H 217.884 -1.89219 -0.467134 0
M  V30 2225 H 216.98 -2.49954 -1.86894 0
M  V30 2226 N 217.281 0.66697 -1.42791 0
M  V30 2227 C 218.213 1.7925 -1.42836 0
M  V30 2228 C 219.226 1.59496 -0.326333 0
M  V30 2229 O 220.415 1.6847 -0.589916 0
M  V30 2230 C 217.515 3.16476 -1.21229 0
M  V30 2231 C 216.688 3.63011 -2.44013 0
M  V30 2232 C 215.747 4.78993 -2.17834 0
M  V30 2233 O 214.773 4.89137 -2.91091 0
M  V30 2234 N 215.975 5.68248 -1.18635 0
M  V30 2235 H 218.74 1.79695 -2.39854 0
M  V30 2236 H 216.301 0.850338 -1.37771 0
M  V30 2237 H 218.293 3.91734 -1.01621 0
M  V30 2238 H 216.863 3.10884 -0.32706 0
M  V30 2239 H 216.083 2.78346 -2.79137 0
M  V30 2240 H 217.371 3.90845 -3.25757 0
M  V30 2241 H 216.769 5.62712 -0.580615 0
M  V30 2242 H 215.326 6.43285 -1.05013 0
M  V30 2243 N 218.759 1.29093 0.90403 0
M  V30 2244 C 220.006 1.16813 1.65411 0
M  V30 2245 C 220.334 -0.28128 1.92455 0
M  V30 2246 O 219.589 -1.22006 1.53013 0
M  V30 2247 C 219.888 1.92224 3.01305 0
M  V30 2248 C 219.554 3.41968 2.93885 0
M  V30 2249 C 218.216 3.82807 2.91569 0
M  V30 2250 C 220.568 4.37409 2.83413 0
M  V30 2251 C 217.896 5.1741 2.76594 0
M  V30 2252 C 220.248 5.72097 2.69977 0
M  V30 2253 C 218.912 6.12199 2.66024 0
M  V30 2254 H 218.182 0.42745 0.605283 0
M  V30 2255 H 220.829 1.59981 1.05254 0
M  V30 2256 H 219.134 1.41635 3.65304 0
M  V30 2257 H 220.831 1.80131 3.58265 0
M  V30 2258 H 217.421 3.09504 2.96488 0
M  V30 2259 H 221.605 4.06813 2.84283 0
M  V30 2260 H 216.861 5.47596 2.71935 0
M  V30 2261 H 221.035 6.45704 2.60844 0
M  V30 2262 H 218.662 7.16448 2.54178 0
M  V30 2263 N 220.237 -1.11381 1.11499 0
M  V30 2264 C 221.167 -2.19509 0.796125 0
M  V30 2265 C 222.148 -1.68458 -0.235796 0
M  V30 2266 O 223.333 -1.93947 -0.0991344 0
M  V30 2267 C 220.463 -3.46475 0.239205 0
M  V30 2268 C 219.417 -4.10744 1.20307 0
M  V30 2269 C 218.743 -5.32293 0.50683 0
M  V30 2270 C 220.043 -4.55597 2.55399 0
M  V30 2271 H 221.737 -2.46439 1.70024 0
M  V30 2272 H 219.283 -1.18446 0.818935 0
M  V30 2273 H 221.236 -4.214 0.00392006 0
M  V30 2274 H 219.96 -3.19006 -0.700206 0
M  V30 2275 H 218.619 -3.37813 1.42399 0
M  V30 2276 H 218.267 -5.01095 -0.437408 0
M  V30 2277 H 217.967 -5.76243 1.1497 0
M  V30 2278 H 219.491 -6.09956 0.280351 0
M  V30 2279 H 220.905 -5.21841 2.37391 0
M  V30 2280 H 219.302 -5.10363 3.15673 0
M  V30 2281 H 220.372 -3.69013 3.14575 0
M  V30 2282 N 221.715 -0.905404 -1.28997 0
M  V30 2283 C 223.131 -0.60233 -1.47798 0
M  V30 2284 C 223.331 0.854645 -1.82478 0
M  V30 2285 O 222.387 1.63439 -1.92468 0
M  V30 2286 C 223.7 -1.53306 -2.58685 0
M  V30 2287 C 225.248 -1.53887 -2.72558 0
M  V30 2288 C 225.723 -2.45602 -3.86579 0
M  V30 2289 N 227.214 -2.43681 -3.93921 0
M  V30 2290 C 227.949 -3.11347 -4.81509 0
M  V30 2291 N 227.445 -3.88313 -5.73746 0
M  V30 2292 N 229.238 -3.00476 -4.75048 0
M  V30 2293 H 221.389 -1.84765 -1.04764 0
M  V30 2294 H 223.652 -0.792025 -0.520961 0
M  V30 2295 H 223.358 -2.57141 -2.39941 0
M  V30 2296 H 223.232 -1.25787 -3.55609 0
M  V30 2297 H 225.619 -0.507941 -2.90696 0
M  V30 2298 H 225.7 -1.85447 -1.76191 0
M  V30 2299 H 225.344 -3.48792 -3.69197 0
M  V30 2300 H 225.274 -2.11349 -4.82327 0
M  V30 2301 H 227.765 -1.87767 -3.27951 0
M  V30 2302 H 228.078 -4.36985 -6.37389 0
M  V30 2303 H 226.423 -3.92419 -5.73614 0
M  V30 2304 H 229.614 -2.39858 -4.01977 0
M  V30 2305 H 229.787 -3.53485 -5.43095 0
M  V30 2306 N 223.193 1.4272 -0.668489 0
M  V30 2307 C 224.421 2.05966 -0.196348 0
M  V30 2308 C 224.836 1.50191 1.14403 0
M  V30 2309 O 224.193 0.639208 1.7094 0
M  V30 2310 C 224.244 3.61314 -0.115815 0
M  V30 2311 O 223.965 4.1502 -1.40322 0
M  V30 2312 C 225.466 4.41663 0.380579 0
M  V30 2313 H 222.686 0.663954 -0.0969829 0
M  V30 2314 H 225.23 1.82966 -0.913446 0
M  V30 2315 H 223.385 3.83448 0.551931 0
M  V30 2316 H 223.799 5.08832 -1.27243 0
M  V30 2317 H 225.273 5.5065 0.385848 0
M  V30 2318 H 225.75 4.15792 1.41471 0
M  V30 2319 H 226.356 4.24534 -0.255209 0
M  V30 2320 N 224.671 0.411399 1.52136 0
M  V30 2321 C 225.901 -0.16284 2.05957 0
M  V30 2322 C 226.309 -1.3922 1.28119 0
M  V30 2323 O 225.652 -1.80768 0.326881 0
M  V30 2324 C 225.714 -0.575946 3.54856 0
M  V30 2325 C 225.378 0.542998 4.53763 0
M  V30 2326 C 226.375 1.40726 5.00492 0
M  V30 2327 C 224.06 0.716337 4.97166 0
M  V30 2328 C 226.054 2.4298 5.8927 0
M  V30 2329 C 223.741 1.74218 5.8574 0
M  V30 2330 C 224.739 2.59731 6.31687 0
M  V30 2331 O 224.427 3.60558 7.18507 0
M  V30 2332 H 224.159 -0.0229125 0.675612 0
M  V30 2333 H 226.713 0.581634 1.96993 0
M  V30 2334 H 224.943 -1.37274 3.61515 0
M  V30 2335 H 226.632 -1.07836 3.91313 0
M  V30 2336 H 227.398 1.28476 4.67674 0
M  V30 2337 H 223.277 0.0603857 4.6096 0
M  V30 2338 H 226.821 3.0976 6.25055 0
M  V30 2339 H 222.718 1.86498 6.17971 0
M  V30 2340 H 223.486 3.56829 7.36624 0
M  V30 2341 N 226.149 -1.5696 0.141893 0
M  V30 2342 C 227.396 -1.9596 -0.510492 0
M  V30 2343 C 227.724 -1.02648 -1.65208 0
M  V30 2344 O 226.979 -0.0546947 -1.95624 0
M  V30 2345 C 227.278 -3.41242 -1.06249 0
M  V30 2346 C 226.944 -4.50882 -0.0398791 0
M  V30 2347 C 225.606 -4.80595 0.241247 0
M  V30 2348 C 227.958 -5.17058 0.65578 0
M  V30 2349 C 225.286 -5.73792 1.22393 0
M  V30 2350 C 227.638 -6.11313 1.62724 0
M  V30 2351 C 226.302 -6.39407 1.91612 0
M  V30 2352 H 225.572 -0.717068 -0.186802 0
M  V30 2353 H 228.219 -1.90142 0.227643 0
M  V30 2354 H 226.524 -3.43866 -1.87785 0
M  V30 2355 H 228.221 -3.68742 -1.57576 0
M  V30 2356 H 224.811 -4.27754 -0.269174 0
M  V30 2357 H 228.995 -4.94239 0.451779 0
M  V30 2358 H 224.251 -5.93853 1.45424 0
M  V30 2359 H 228.425 -6.61668 2.17183 0
M  V30 2360 H 226.052 -7.11427 2.6791 0
M  V30 2361 N 227.627 0.131896 -1.57047 0
M  V30 2362 C 229.043 0.485031 -1.52051 0
M  V30 2363 C 229.243 1.82563 -0.85281 0
M  V30 2364 O 228.299 2.48817 -0.429694 0
M  V30 2365 C 229.612 0.481409 -2.96821 0
M  V30 2366 C 231.16 0.565868 -3.07842 0
M  V30 2367 C 231.635 0.592762 -4.54148 0
M  V30 2368 N 233.126 0.654564 -4.58552 0
M  V30 2369 C 233.861 0.696608 -5.69153 0
M  V30 2370 N 233.357 0.697078 -6.89284 0
M  V30 2371 N 235.15 0.738639 -5.57226 0
M  V30 2372 H 227.301 -0.746664 -1.98843 0
M  V30 2373 H 229.564 -0.273999 -0.90754 0
M  V30 2374 H 229.27 -0.435731 -3.4899 0
M  V30 2375 H 229.144 1.3139 -3.53577 0
M  V30 2376 H 231.531 1.47343 -2.55684 0
M  V30 2377 H 231.612 -0.29406 -2.54104 0
M  V30 2378 H 231.256 -0.310701 -5.06949 0
M  V30 2379 H 231.186 1.46939 -5.05684 0
M  V30 2380 H 233.677 0.660887 -3.72076 0
M  V30 2381 H 233.99 0.731426 -7.69331 0
M  V30 2382 H 232.335 0.66471 -6.91814 0
M  V30 2383 H 235.526 0.735545 -4.62285 0
M  V30 2384 H 235.699 0.767938 -6.43434 0
M  V30 2385 N 229.106 1.52395 0.401703 0
M  V30 2386 C 230.039 1.70999 1.51111 0
M  V30 2387 C 231.017 0.55765 1.52738 0
M  V30 2388 O 232.201 0.785912 1.71335 0
M  V30 2389 C 229.328 1.75607 2.8962 0
M  V30 2390 C 228.374 2.97227 3.05873 0
M  V30 2391 S 229.207 4.57439 2.78405 0
M  V30 2392 C 230.363 4.64844 4.19131 0
M  V30 2393 H 230.596 2.6483 1.35102 0
M  V30 2394 H 228.129 1.42527 0.593762 0
M  V30 2395 H 230.087 1.78947 3.69443 0
M  V30 2396 H 228.748 0.828914 3.02965 0
M  V30 2397 H 227.941 2.96955 4.07227 0
M  V30 2398 H 227.543 2.91813 2.33925 0
M  V30 2399 H 229.835 4.42677 5.12877 0
M  V30 2400 H 230.778 5.66807 4.24424 0
M  V30 2401 H 231.186 3.93804 4.04448 0
M  V30 2402 N 230.584 -0.659388 1.43143 0
M  V30 2403 C 231.532 -1.79374 1.4808 0
M  V30 2404 C 232.526 -1.65639 0.354988 0
M  V30 2405 O 233.732 -1.7206 0.528704 0
M  V30 2406 H 230.107 -0.591705 0.4641 0
M  V30 2407 H 232.078 -1.72329 2.43609 0
M  V30 2408 C 230.827 -3.17606 1.41499 0
M  V30 2409 H 230.15 -3.28809 2.27431 0
M  V30 2410 H 231.59 -3.96951 1.49015 0
M  V30 2411 C 230.049 -3.36642 0.131765 0
M  V30 2412 O 230.579 -3.93461 -0.809386 0
M  V30 2413 N 228.785 -2.90567 0.0439396 0
M  V30 2414 H 228.332 -2.44513 0.810619 0
M  V30 2415 H 228.29 -3.03681 -0.813969 0
M  V30 2416 N 232.062 -1.29571 -0.897171 0
M  V30 2417 C 233.292 -1.20408 -1.67886 0
M  V30 2418 C 233.7 0.237429 -1.87704 0
M  V30 2419 O 233.043 1.17048 -1.41582 0
M  V30 2420 C 233.105 -1.84887 -3.08314 0
M  V30 2421 C 232.769 -3.34189 -3.11716 0
M  V30 2422 C 233.766 -4.30374 -2.91675 0
M  V30 2423 C 231.451 -3.75431 -3.33701 0
M  V30 2424 C 233.445 -5.65776 -2.93557 0
M  V30 2425 C 231.132 -5.10955 -3.35214 0
M  V30 2426 C 232.13 -6.05938 -3.15164 0
M  V30 2427 O 231.818 -7.38987 -3.1647 0
M  V30 2428 H 231.55 -0.418289 -0.531046 0
M  V30 2429 H 234.104 -1.71514 -1.13014 0
M  V30 2430 H 232.334 -1.28295 -3.64798 0
M  V30 2431 H 234.023 -1.70011 -3.6858 0
M  V30 2432 H 234.789 -3.99844 -2.74499 0
M  V30 2433 H 230.668 -3.01953 -3.48347 0
M  V30 2434 H 234.212 -6.39889 -2.77826 0
M  V30 2435 H 230.109 -5.4113 -3.51922 0
M  V30 2436 H 230.877 -7.47823 -3.3272 0
M  V30 2437 N 233.54 1.10788 -1.12088 0
M  V30 2438 C 234.768 1.86461 -0.896651 0
M  V30 2439 C 235.183 1.80492 0.553912 0
M  V30 2440 O 234.54 1.19102 1.38278 0
M  V30 2441 C 234.591 3.35006 -1.35843 0
M  V30 2442 O 234.312 3.40866 -2.75213 0
M  V30 2443 C 235.813 4.27565 -1.1706 0
M  V30 2444 H 233.033 0.589425 -0.320654 0
M  V30 2445 H 235.577 1.40076 -1.48993 0
M  V30 2446 H 233.732 3.7887 -0.808458 0
M  V30 2447 H 234.146 4.33411 -2.9539 0
M  V30 2448 H 235.62 5.30007 -1.54263 0
M  V30 2449 H 236.097 4.3906 -0.110814 0
M  V30 2450 H 236.703 3.89501 -1.70789 0
M  V30 2451 N 235.018 0.912232 1.28515 0
M  V30 2452 C 236.266 0.543523 1.94654 0
M  V30 2453 C 236.587 -0.9155 1.72173 0
M  V30 2454 O 235.857 -1.64708 1.06058 0
M  V30 2455 H 234.437 0.198017 0.720277 0
M  V30 2456 H 237.099 1.16126 1.56527 0
M  V30 2457 H 236.195 0.736684 3.03281 0
M  V30 2458 N 236.496 -1.42363 0.676048 0
M  V30 2459 C 237.426 -2.33497 0.0124832 0
M  V30 2460 C 238.407 -1.50748 -0.787981 0
M  V30 2461 O 239.592 -1.79346 -0.744884 0
M  V30 2462 C 236.722 -3.34377 -0.938582 0
M  V30 2463 C 235.676 -4.27289 -0.246622 0
M  V30 2464 C 235.002 -5.18386 -1.31071 0
M  V30 2465 C 236.302 -5.14916 0.875125 0
M  V30 2466 H 237.996 -2.89233 0.773593 0
M  V30 2467 H 235.542 -1.39073 0.37346 0
M  V30 2468 H 237.495 -3.97044 -1.41188 0
M  V30 2469 H 236.219 -2.76947 -1.73113 0
M  V30 2470 H 234.878 -3.66018 0.206456 0
M  V30 2471 H 234.526 -4.57282 -2.09528 0
M  V30 2472 H 234.226 -5.81378 -0.852839 0
M  V30 2473 H 235.75 -5.83929 -1.78492 0
M  V30 2474 H 237.164 -5.71262 0.482983 0
M  V30 2475 H 235.561 -5.86747 1.25887 0
M  V30 2476 H 236.631 -4.53242 1.72335 0
M  V30 2477 N 237.974 -0.419461 -1.51915 0
M  V30 2478 C 238.937 0.389116 -2.25873 0
M  V30 2479 C 239.937 0.964924 -1.28631 0
M  V30 2480 O 241.127 0.842179 -1.52489 0
M  V30 2481 C 238.259 1.54874 -3.03689 0
M  V30 2482 H 239.452 -0.258799 -2.98781 0
M  V30 2483 H 237.005 -0.172209 -1.55348 0
M  V30 2484 H 237.74 2.23323 -2.35154 0
M  V30 2485 H 237.525 1.14223 -3.75094 0
M  V30 2486 H 239.015 2.12046 -3.59759 0
M  V30 2487 N 239.452 1.56882 -0.150215 0
M  V30 2488 C 240.362 2.20494 0.801222 0
M  V30 2489 C 241.378 1.19019 1.26927 0
M  V30 2490 O 242.554 1.51607 1.32579 0
M  V30 2491 C 239.619 2.81659 2.02161 0
M  V30 2492 C 238.68 3.9827 1.60249 0
M  V30 2493 C 237.913 4.56508 2.7647 0
M  V30 2494 O 238.136 4.13627 3.92771 0
M  V30 2495 O 237.07 5.46719 2.51757 0
M  V30 2496 H 240.896 3.02315 0.289717 0
M  V30 2497 H 238.481 1.49202 0.0769684 0
M  V30 2498 H 240.363 3.20522 2.73576 0
M  V30 2499 H 239.038 2.02849 2.52258 0
M  V30 2500 H 237.945 3.64117 0.858477 0
M  V30 2501 H 239.278 4.78609 1.14864 0
M  V30 2502 N 240.93 -0.123565 1.57115 0
M  V30 2503 C 242.16 -0.845233 1.88519 0
M  V30 2504 C 242.568 -1.74168 0.739064 0
M  V30 2505 O 241.911 -1.81244 -0.299355 0
M  V30 2506 C 241.973 -1.73452 3.14888 0
M  V30 2507 C 241.637 -1.01285 4.45635 0
M  V30 2508 C 242.634 -0.355774 5.18681 0
M  V30 2509 C 240.319 -0.99538 4.92339 0
M  V30 2510 C 242.313 0.309114 6.3665 0
M  V30 2511 C 240 -0.32669 6.10226 0
M  V30 2512 C 240.998 0.324406 6.82229 0
M  V30 2513 O 240.686 0.982437 7.97874 0
M  V30 2514 H 240.418 -0.248534 0.628655 0
M  V30 2515 H 242.972 -0.113907 2.05084 0
M  V30 2516 H 241.202 -2.50737 2.94394 0
M  V30 2517 H 242.891 -2.33021 3.32349 0
M  V30 2518 H 243.657 -0.360918 4.83655 0
M  V30 2519 H 239.536 -1.49159 4.36202 0
M  V30 2520 H 243.08 0.8179 6.92789 0
M  V30 2521 H 238.977 -0.319294 6.4471 0
M  V30 2522 H 239.745 0.886454 8.13686 0
M  V30 2523 N 242.408 -1.52605 -0.393616 0
M  V30 2524 C 243.819 -1.59417 -0.971761 0
M  V30 2525 C 244.17 -0.444173 -1.91106 0
M  V30 2526 O 243.295 0.433382 -2.12016 0
M  V30 2527 C 243.89 -2.88936 -1.76921 0
M  V30 2528 C 242.449 -2.98175 -2.29714 0
M  V30 2529 C 241.596 -2.54491 -1.10135 0
M  V30 2530 H 244.547 -1.57751 -0.173317 0
M  V30 2531 H 244.568 -2.75163 -2.62804 0
M  V30 2532 H 244.08 -3.72616 -1.08532 0
M  V30 2533 H 242.181 -2.19024 -3.01429 0
M  V30 2534 H 242.294 -4.02726 -2.59517 0
M  V30 2535 H 240.658 -2.08702 -1.45999 0
M  V30 2536 H 241.441 -3.4056 -0.432874 0
M  V30 2537 N 243.887 0.651787 -1.4349 0
M  V30 2538 C 245.164 1.40909 -1.35661 0
M  V30 2539 C 245.544 2.11099 -0.00511733 0
M  V30 2540 O 244.892 2.04892 1.0115 0
M  V30 2541 C 245.102 2.3926 -2.54078 0
M  V30 2542 C 246.45 3.03217 -2.97228 0
M  V30 2543 O 247.474 2.49588 -2.54135 0
M  V30 2544 O 246.333 4.00455 -3.71885 0
M  V30 2545 H 243.427 0.629625 -0.536191 0
M  V30 2546 H 245.973 0.678575 -1.55542 0
M  V30 2547 H 244.745 1.86352 -3.44076 0
M  V30 2548 H 244.368 3.1976 -2.36303 0
M  V30 2549 N 245.365 1.30045 0.890287 0
M  V30 2550 C 246.612 1.18561 1.64163 0
M  V30 2551 C 246.94 -0.260852 1.92743 0
M  V30 2552 O 246.195 -1.20376 1.54299 0
M  V30 2553 C 246.494 1.95409 2.99249 0
M  V30 2554 C 246.16 3.45066 2.90242 0
M  V30 2555 C 244.822 3.85878 2.87492 0
M  V30 2556 C 247.174 4.4039 2.78758 0
M  V30 2557 C 244.502 5.20314 2.7109 0
M  V30 2558 C 246.854 5.74928 2.63894 0
M  V30 2559 C 245.518 6.14986 2.59516 0
M  V30 2560 H 244.788 0.433846 0.600715 0
M  V30 2561 H 247.435 1.61088 1.03552 0
M  V30 2562 H 245.74 1.45501 3.63781 0
M  V30 2563 H 247.437 1.8392 3.56334 0
M  V30 2564 H 244.027 3.12631 2.93189 0
M  V30 2565 H 248.211 4.09806 2.79952 0
M  V30 2566 H 243.467 5.50449 2.66112 0
M  V30 2567 H 247.641 6.48434 2.53981 0
M  V30 2568 H 245.268 7.19104 2.46565 0
M  V30 2569 N 246.843 -1.10192 1.12674 0
M  V30 2570 C 248.09 -1.82205 0.883606 0
M  V30 2571 C 248.418 -1.8532 -0.590492 0
M  V30 2572 O 247.673 -1.31137 -1.45264 0
M  V30 2573 C 247.972 -3.28552 1.4067 0
M  V30 2574 C 247.638 -3.45582 2.89627 0
M  V30 2575 C 246.3 -3.49937 3.30299 0
M  V30 2576 C 248.652 -3.50768 3.85501 0
M  V30 2577 C 245.98 -3.57049 4.65546 0
M  V30 2578 C 248.332 -3.59414 5.20581 0
M  V30 2579 C 246.996 -3.62034 5.60792 0
M  V30 2580 H 246.266 -0.666735 0.323334 0
M  V30 2581 H 248.913 -1.29868 1.40736 0
M  V30 2582 H 247.218 -3.83473 0.80347 0
M  V30 2583 H 248.915 -3.82788 1.19475 0
M  V30 2584 H 245.505 -3.42871 2.57172 0
M  V30 2585 H 249.689 -3.46651 3.55171 0
M  V30 2586 H 244.945 -3.57361 4.96088 0
M  V30 2587 H 249.119 -3.62371 5.94693 0
M  V30 2588 H 246.746 -3.67298 6.6558 0
M  V30 2589 N 248.321 -0.919034 -1.28029 0
M  V30 2590 C 249.284 -0.416182 -2.2539 0
M  V30 2591 C 250.284 0.460438 -1.54067 0
M  V30 2592 O 251.474 0.262744 -1.72207 0
M  V30 2593 C 248.606 0.402707 -3.38513 0
M  V30 2594 H 249.799 -1.27629 -2.71387 0
M  V30 2595 H 247.352 -0.698919 -1.39803 0
M  V30 2596 H 248.087 1.282 -2.97885 0
M  V30 2597 H 247.872 -0.225698 -3.9145 0
M  V30 2598 H 249.362 0.745191 -4.10897 0
M  V30 2599 N 249.799 1.42003 -0.683588 0
M  V30 2600 C 251.045 2.01712 -0.209825 0
M  V30 2601 C 251.378 1.53968 1.18353 0
M  V30 2602 O 250.653 0.745661 1.79639 0
M  V30 2603 C 250.936 3.59202 -0.254197 0
M  V30 2604 C 250.789 4.17102 -1.68363 0
M  V30 2605 C 252.108 4.38344 0.392709 0
M  V30 2606 H 249.227 0.732891 -0.0777189 0
M  V30 2607 H 251.869 1.68909 -0.87004 0
M  V30 2608 H 250.019 3.87278 0.307954 0
M  V30 2609 H 251.691 3.99946 -2.29871 0
M  V30 2610 H 249.934 3.72597 -2.22157 0
M  V30 2611 H 250.605 5.26249 -1.6663 0
M  V30 2612 H 253.081 4.16011 -0.0859162 0
M  V30 2613 H 251.957 5.47901 0.331063 0
M  V30 2614 H 252.218 4.16887 1.47164 0
M  V30 2615 N 251.277 0.427512 1.51691 0
M  V30 2616 C 252.517 -0.141524 2.03909 0
M  V30 2617 C 252.881 -1.40811 1.30523 0
M  V30 2618 O 254.082 -2.05676 1.73063 0
M  V30 2619 C 252.353 -0.364962 3.55532 0
M  V30 2620 S 253.912 -0.898812 4.29496 0
M  V30 2621 H 250.73 -0.0364542 0.710065 0
M  V30 2622 H 253.332 0.584659 1.86553 0
M  V30 2623 H 252.036 0.56336 4.06515 0
M  V30 2624 H 251.567 -1.1185 3.77164 0
M  V30 2625 H 253.582 -2.17747 4.45871 0
M  V30 2626 N 252.755 -1.56801 0.158532 0
M  V30 2627 C 253.685 -2.20347 -0.772609 0
M  V30 2628 C 254.666 -1.15518 -1.24859 0
M  V30 2629 O 255.851 -1.43902 -1.30406 0
M  V30 2630 C 252.981 -2.83417 -2.00729 0
M  V30 2631 C 251.935 -3.94174 -1.66765 0
M  V30 2632 C 251.261 -4.44233 -2.97592 0
M  V30 2633 C 252.561 -5.14392 -0.905447 0
M  V30 2634 H 254.255 -2.98413 -0.242959 0
M  V30 2635 H 251.801 -1.43537 -0.115419 0
M  V30 2636 H 253.754 -3.26543 -2.6636 0
M  V30 2637 H 252.478 -2.02701 -2.56086 0
M  V30 2638 H 251.137 -3.51684 -1.03508 0
M  V30 2639 H 250.785 -3.60325 -3.50963 0
M  V30 2640 H 250.485 -5.18945 -2.75626 0
M  V30 2641 H 252.009 -4.90037 -3.64274 0
M  V30 2642 H 253.423 -5.5429 -1.46408 0
M  V30 2643 H 251.82 -5.9494 -0.7853 0
M  V30 2644 H 252.89 -4.84795 0.100668 0
M  V30 2645 N 254.233 0.115231 -1.57178 0
M  V30 2646 C 255.482 0.820945 -1.84237 0
M  V30 2647 C 255.795 1.80866 -0.744761 0
M  V30 2648 O 257.001 2.56083 -0.901871 0
M  V30 2649 C 255.457 1.51072 -3.26658 0
M  V30 2650 C 255.065 0.563795 -4.44438 0
M  V30 2651 C 256.809 2.20134 -3.62962 0
M  V30 2652 C 254.716 1.25701 -5.77887 0
M  V30 2653 H 253.646 0.310328 -0.687177 0
M  V30 2654 H 256.297 0.0737134 -1.83352 0
M  V30 2655 H 254.679 2.30471 -3.22024 0
M  V30 2656 H 255.853 -0.197247 -4.60378 0
M  V30 2657 H 254.168 -0.0200638 -4.16395 0
M  V30 2658 H 256.765 2.72696 -4.59936 0
M  V30 2659 H 257.108 2.98107 -2.90582 0
M  V30 2660 H 257.641 1.47619 -3.69396 0
M  V30 2661 H 254.38 0.518493 -6.53446 0
M  V30 2662 H 253.9 1.98997 -5.65827 0
M  V30 2663 H 255.579 1.78915 -6.2177 0
M  V30 2664 N 255.711 1.52812 0.385517 0
M  V30 2665 C 256.641 1.80808 1.47752 0
M  V30 2666 C 257.622 0.660318 1.5676 0
M  V30 2667 O 258.807 0.908246 1.71652 0
M  V30 2668 C 255.937 1.98008 2.85324 0
M  V30 2669 C 254.891 3.13709 2.91154 0
M  V30 2670 C 254.217 3.16169 4.31209 0
M  V30 2671 C 255.517 4.52709 2.60483 0
M  V30 2672 H 257.211 2.72253 1.24573 0
M  V30 2673 H 254.757 1.31003 0.597839 0
M  V30 2674 H 256.71 2.16176 3.61726 0
M  V30 2675 H 255.434 1.03255 3.09848 0
M  V30 2676 H 254.093 2.95329 2.17201 0
M  V30 2677 H 253.741 2.19092 4.52778 0
M  V30 2678 H 253.441 3.93894 4.36029 0
M  V30 2679 H 254.965 3.36496 5.09512 0
M  V30 2680 H 256.379 4.71173 3.26602 0
M  V30 2681 H 254.776 5.32528 2.76648 0
M  V30 2682 H 255.846 4.59186 1.55809 0
M  V30 2683 N 257.189 -0.644168 1.43834 0
M  V30 2684 C 258.119 -1.76814 1.52509 0
M  V30 2685 C 259.1 -1.65823 0.379052 0
M  V30 2686 O 260.285 -1.84781 0.597466 0
M  V30 2687 C 257.415 -3.15288 1.4564 0
M  V30 2688 C 256.369 -3.41053 2.58586 0
M  V30 2689 C 255.695 -4.79421 2.36769 0
M  V30 2690 C 256.995 -3.34902 4.00797 0
M  V30 2691 H 258.689 -1.69812 2.46586 0
M  V30 2692 H 256.235 -0.815542 1.1868 0
M  V30 2693 H 258.188 -3.93681 1.50311 0
M  V30 2694 H 256.912 -3.23043 0.480725 0
M  V30 2695 H 255.571 -2.65035 2.53282 0
M  V30 2696 H 255.219 -4.83863 1.37424 0
M  V30 2697 H 254.919 -4.9762 3.12487 0
M  V30 2698 H 256.443 -5.6006 2.43238 0
M  V30 2699 H 257.857 -4.03218 4.07539 0
M  V30 2700 H 256.254 -3.64637 4.76613 0
M  V30 2701 H 257.324 -2.32928 4.25291 0
M  V30 2702 N 258.668 -1.30515 -0.883378 0
M  V30 2703 C 259.598 -1.19607 -2.00541 0
M  V30 2704 C 260.579 -0.086346 -1.69881 0
M  V30 2705 O 261.764 -0.268654 -1.92333 0
M  V30 2706 C 258.894 -0.888758 -3.35736 0
M  V30 2707 C 257.848 -1.95659 -3.8066 0
M  V30 2708 C 257.174 -1.50224 -5.13164 0
M  V30 2709 C 258.474 -3.36788 -3.99213 0
M  V30 2710 H 260.168 -2.13476 -2.09925 0
M  V30 2711 H 257.714 -1.02775 -1.00863 0
M  V30 2712 H 259.667 -0.799094 -4.13754 0
M  V30 2713 H 258.391 0.0856125 -3.26488 0
M  V30 2714 H 257.05 -2.03591 -3.04871 0
M  V30 2715 H 256.698 -0.516092 -5.00345 0
M  V30 2716 H 256.398 -2.2165 -5.44192 0
M  V30 2717 H 257.922 -1.42639 -5.93706 0
M  V30 2718 H 259.336 -3.31605 -4.67665 0
M  V30 2719 H 257.733 -4.06314 -4.41621 0
M  V30 2720 H 258.803 -3.78561 -3.03017 0
M  V30 2721 N 260.146 1.09593 -1.13257 0
M  V30 2722 C 261.109 2.14359 -0.811358 0
M  V30 2723 C 262.109 1.59808 0.178377 0
M  V30 2724 O 263.299 1.74132 -0.0484911 0
M  V30 2725 C 260.431 3.40269 -0.207276 0
M  V30 2726 H 261.624 2.44284 -1.73969 0
M  V30 2727 H 259.177 1.25102 -0.936973 0
M  V30 2728 H 259.912 3.15969 0.73036 0
M  V30 2729 H 259.697 3.81154 -0.919992 0
M  V30 2730 H 261.187 4.176 0.000667944 0
M  V30 2731 N 261.624 0.925811 1.2754 0
M  V30 2732 C 262.872 0.564138 1.94067 0
M  V30 2733 C 263.193 -0.897188 1.73134 0
M  V30 2734 O 262.463 -1.63573 1.07799 0
M  V30 2735 H 261.043 0.205645 0.718136 0
M  V30 2736 H 263.705 1.1778 1.55287 0
M  V30 2737 H 262.801 0.76881 3.02483 0
M  V30 2738 N 263.102 -1.41638 0.69111 0
M  V30 2739 C 264.032 -2.3347 0.037248 0
M  V30 2740 C 265.013 -1.51575 -0.771947 0
M  V30 2741 O 266.198 -1.80126 -0.72582 0
M  V30 2742 C 263.328 -3.35354 -0.903064 0
M  V30 2743 C 262.282 -4.27526 -0.201288 0
M  V30 2744 C 261.608 -5.19747 -1.25565 0
M  V30 2745 C 262.908 -5.13959 0.929689 0
M  V30 2746 H 264.602 -2.88397 0.804227 0
M  V30 2747 H 262.148 -1.38669 0.388189 0
M  V30 2748 H 264.101 -3.98519 -1.36969 0
M  V30 2749 H 262.825 -2.78767 -1.70166 0
M  V30 2750 H 261.484 -3.65779 0.245265 0
M  V30 2751 H 261.132 -4.59479 -2.04666 0
M  V30 2752 H 260.832 -5.8225 -0.791128 0
M  V30 2753 H 262.356 -5.85789 -1.72288 0
M  V30 2754 H 263.77 -5.70718 0.543546 0
M  V30 2755 H 262.167 -5.85379 1.32103 0
M  V30 2756 H 263.237 -4.51389 1.77133 0
M  V30 2757 N 264.58 -0.43555 -1.51462 0
M  V30 2758 C 265.51 0.367376 -2.30592 0
M  V30 2759 C 266.491 1.02263 -1.35928 0
M  V30 2760 O 267.676 1.02661 -1.64847 0
M  V30 2761 C 264.806 1.46983 -3.14664 0
M  V30 2762 C 263.76 0.938161 -4.17591 0
M  V30 2763 C 263.086 2.13622 -4.90173 0
M  V30 2764 C 264.386 -0.0261621 -5.22293 0
M  V30 2765 H 266.08 -0.292969 -2.97963 0
M  V30 2766 H 263.626 -0.14234 -1.43295 0
M  V30 2767 H 265.579 2.03873 -3.688 0
M  V30 2768 H 264.303 2.15843 -2.4511 0
M  V30 2769 H 262.962 0.391481 -3.64504 0
M  V30 2770 H 262.61 2.81098 -4.17124 0
M  V30 2771 H 262.31 1.78688 -5.59772 0
M  V30 2772 H 263.834 2.7107 -5.47132 0
M  V30 2773 H 265.248 0.452384 -5.71512 0
M  V30 2774 H 263.645 -0.287992 -5.99409 0
M  V30 2775 H 264.715 -0.963391 -4.75233 0
M  V30 2776 N 266.058 1.56714 -0.166846 0
M  V30 2777 C 267.283 2.01557 0.488833 0
M  V30 2778 C 267.708 1.0463 1.56314 0
M  V30 2779 O 267.066 0.0251304 1.81283 0
M  V30 2780 C 267.114 3.4503 1.04818 0
M  V30 2781 O 266.218 3.51163 2.16236 0
M  V30 2782 H 265.559 0.653516 0.117526 0
M  V30 2783 H 268.089 2.02818 -0.269421 0
M  V30 2784 H 268.099 3.84243 1.37191 0
M  V30 2785 H 266.774 4.15077 0.261572 0
M  V30 2786 H 265.351 3.23807 1.84942 0
M  V30 2787 N 267.536 -0.106894 1.57237 0
M  V30 2788 C 268.783 -0.812526 1.85484 0
M  V30 2789 C 269.111 -1.79304 0.753687 0
M  V30 2790 O 268.366 -1.94047 -0.253853 0
M  V30 2791 C 268.665 -1.58628 3.20268 0
M  V30 2792 C 268.331 -0.748967 4.44636 0
M  V30 2793 C 266.993 -0.518104 4.78403 0
M  V30 2794 C 269.345 -0.166122 5.20935 0
M  V30 2795 C 266.673 0.305659 5.85903 0
M  V30 2796 C 269.025 0.644899 6.29304 0
M  V30 2797 C 267.689 0.885965 6.61594 0
M  V30 2798 H 266.959 -0.297324 0.678734 0
M  V30 2799 H 269.606 -0.0744332 1.91355 0
M  V30 2800 H 267.911 -2.39562 3.10028 0
M  V30 2801 H 269.608 -2.13643 3.39349 0
M  V30 2802 H 266.198 -0.939006 4.18187 0
M  V30 2803 H 270.382 -0.33167 4.95191 0
M  V30 2804 H 265.638 0.501528 6.0934 0
M  V30 2805 H 269.812 1.10345 6.87602 0
M  V30 2806 H 267.439 1.52609 7.44725 0
M  V30 2807 N 269.014 -1.53014 -0.377408 0
M  V30 2808 C 270.262 -1.6829 -1.11906 0
M  V30 2809 C 270.583 -0.431206 -1.90173 0
M  V30 2810 O 269.853 0.554595 -1.87886 0
M  V30 2811 H 268.433 -0.620371 -0.416112 0
M  V30 2812 H 271.095 -1.90167 -0.426893 0
M  V30 2813 H 270.191 -2.53862 -1.8155 0
M  V30 2814 N 270.492 0.636531 -1.44174 0
M  V30 2815 C 271.738 1.39826 -1.4689 0
M  V30 2816 C 272.071 1.93947 -0.0990585 0
M  V30 2817 O 271.346 1.73325 0.882544 0
M  V30 2818 C 271.629 2.56751 -2.5249 0
M  V30 2819 C 271.482 2.08014 -3.98811 0
M  V30 2820 C 272.801 3.58946 -2.54649 0
M  V30 2821 H 269.92 0.507075 -0.53483 0
M  V30 2822 H 272.562 0.720188 -1.75822 0
M  V30 2823 H 270.712 3.14597 -2.2795 0
M  V30 2824 H 272.384 1.5504 -4.34466 0
M  V30 2825 H 270.627 1.39242 -4.10846 0
M  V30 2826 H 271.298 2.92169 -4.68339 0
M  V30 2827 H 273.774 3.1089 -2.76563 0
M  V30 2828 H 272.65 4.38286 -3.3045 0
M  V30 2829 H 272.911 4.12655 -1.58646 0
M  V30 2830 N 271.97 1.30982 0.876444 0
M  V30 2831 C 272.917 1.18085 1.98304 0
M  V30 2832 C 273.887 0.0682263 1.6596 0
M  V30 2833 O 275.072 0.239937 1.89285 0
M  V30 2834 C 272.212 0.887475 3.33493 0
M  V30 2835 C 271.325 2.08281 3.78475 0
M  V30 2836 C 270.46 1.72678 5.0235 0
M  V30 2837 C 269.499 2.88657 5.39762 0
M  V30 2838 N 268.636 2.53292 6.54819 0
M  V30 2839 H 273.476 2.1275 2.08666 0
M  V30 2840 H 271.013 1.05839 1.02159 0
M  V30 2841 H 272.971 0.697961 4.1132 0
M  V30 2842 H 271.601 -0.022315 3.22792 0
M  V30 2843 H 270.653 2.3833 2.96484 0
M  V30 2844 H 271.965 2.95108 4.02135 0
M  V30 2845 H 271.119 1.50151 5.87826 0
M  V30 2846 H 269.858 0.830327 4.8058 0
M  V30 2847 H 268.863 3.1184 4.52809 0
M  V30 2848 H 270.088 3.79002 5.63502 0
M  V30 2849 H 268.034 1.66163 6.34607 0
M  V30 2850 H 267.951 3.3365 6.7839 0
M  V30 2851 H 269.219 2.34143 7.43503 0
M  V30 2852 N 273.449 -1.08991 1.13837 0
M  V30 2853 C 274.359 -2.19301 0.833333 0
M  V30 2854 C 275.375 -1.73026 -0.183847 0
M  V30 2855 O 276.551 -2.01395 -0.0138092 0
M  V30 2856 C 273.616 -3.45323 0.308651 0
M  V30 2857 C 272.677 -4.06255 1.38764 0
M  V30 2858 C 271.91 -5.26262 0.887896 0
M  V30 2859 O 272.133 -5.69747 -0.27287 0
M  V30 2860 O 271.067 -5.78435 1.66421 0
M  V30 2861 H 274.893 -2.47854 1.75506 0
M  V30 2862 H 272.478 -1.18012 0.916166 0
M  V30 2863 H 274.36 -4.21394 0.0216739 0
M  V30 2864 H 273.035 -3.18362 -0.585431 0
M  V30 2865 H 271.942 -3.318 1.72799 0
M  V30 2866 H 273.275 -4.37452 2.25602 0
M  V30 2867 N 274.927 -0.932562 -1.27047 0
M  V30 2868 C 276.152 -0.591474 -1.98787 0
M  V30 2869 C 276.577 0.824601 -1.69062 0
M  V30 2870 O 275.935 1.5541 -0.933677 0
M  V30 2871 C 275.983 -0.829808 -3.50922 0
M  V30 2872 O 275.087 0.102266 -4.12273 0
M  V30 2873 H 274.428 -0.227185 -0.623926 0
M  V30 2874 H 276.958 -1.25314 -1.61733 0
M  V30 2875 H 276.968 -0.747292 -4.01098 0
M  V30 2876 H 275.643 -1.86201 -3.7189 0
M  V30 2877 H 274.22 -0.0305761 -3.72887 0
M  V30 2878 N 276.405 1.4127 -0.698611 0
M  V30 2879 C 277.368 2.29158 -0.044132 0
M  V30 2880 C 278.368 1.44529 0.704841 0
M  V30 2881 O 279.558 1.65643 0.539276 0
M  V30 2882 C 276.69 3.27459 0.947809 0
M  V30 2883 H 277.883 2.88529 -0.817994 0
M  V30 2884 H 275.436 1.49307 -0.46228 0
M  V30 2885 H 276.171 2.73073 1.74933 0
M  V30 2886 H 275.956 3.8991 0.41385 0
M  V30 2887 H 277.446 3.93311 1.40344 0
M  V30 2888 N 277.883 0.443576 1.51229 0
M  V30 2889 C 279.129 -0.11321 2.03085 0
M  V30 2890 C 279.484 -1.39841 1.32145 0
M  V30 2891 O 278.777 -1.86723 0.429542 0
M  V30 2892 C 278.971 -0.380579 3.55368 0
M  V30 2893 C 278.8 0.877157 4.41062 0
M  V30 2894 C 277.57 1.4125 4.85156 0
M  V30 2895 C 279.768 1.76503 4.83064 0
M  V30 2896 N 277.75 2.62213 5.55083 0
M  V30 2897 C 279.121 2.82067 5.52122 0
M  V30 2898 C 281.176 1.7787 4.65045 0
M  V30 2899 C 279.879 3.88952 6.05069 0
M  V30 2900 C 281.905 2.83694 5.18914 0
M  V30 2901 C 281.267 3.87978 5.87922 0
M  V30 2902 H 277.366 -0.00210178 0.781997 0
M  V30 2903 H 279.95 0.605641 1.85041 0
M  V30 2904 H 278.121 -1.06847 3.73414 0
M  V30 2905 H 279.853 -0.929274 3.93887 0
M  V30 2906 H 276.608 0.965542 4.63653 0
M  V30 2907 H 277.032 3.23568 5.9467 0
M  V30 2908 H 281.674 0.985744 4.11148 0
M  V30 2909 H 279.392 4.69082 6.58018 0
M  V30 2910 H 282.978 2.85702 5.06819 0
M  V30 2911 H 281.858 4.68517 6.28857 0
M  V30 2912 N 279.361 -1.56624 0.175154 0
M  V30 2913 C 280.607 -1.9729 -0.469506 0
M  V30 2914 C 280.94 -1.06128 -1.62636 0
M  V30 2915 O 280.215 -0.109183 -1.94193 0
M  V30 2916 C 280.498 -3.47375 -0.948804 0
M  V30 2917 C 280.351 -4.49317 0.208491 0
M  V30 2918 C 281.67 -4.00652 -1.82116 0
M  V30 2919 H 278.789 -0.717317 -0.16919 0
M  V30 2920 H 281.431 -1.88184 0.262062 0
M  V30 2921 H 279.581 -3.55267 -1.57219 0
M  V30 2922 H 281.253 -4.53482 0.845682 0
M  V30 2923 H 279.496 -4.25121 0.863395 0
M  V30 2924 H 280.167 -5.51741 -0.169059 0
M  V30 2925 H 282.643 -3.95416 -1.2956 0
M  V30 2926 H 281.519 -5.06075 -2.12554 0
M  V30 2927 H 281.78 -3.44699 -2.7683 0
M  V30 2928 N 280.839 0.0985539 -1.57292 0
M  V30 2929 C 281.787 1.1387 -2.02821 0
M  V30 2930 C 282.781 1.41676 -0.928666 0
M  V30 2931 O 283.987 1.41398 -1.11385 0
M  V30 2932 H 280.362 0.384419 -0.646317 0
M  V30 2933 H 282.333 0.728347 -2.89375 0
M  V30 2934 C 281.082 2.45166 -2.46554 0
M  V30 2935 H 280.405 2.24613 -3.3074 0
M  V30 2936 H 281.845 3.16456 -2.8219 0
M  V30 2937 C 280.304 3.09216 -1.33742 0
M  V30 2938 O 280.834 3.96163 -0.66464 0
M  V30 2939 N 279.04 2.69413 -1.08928 0
M  V30 2940 H 278.587 1.98801 -1.63817 0
M  V30 2941 H 278.545 3.12594 -0.336458 0
M  V30 2942 N 282.317 1.53212 0.369288 0
M  V30 2943 C 283.264 1.79388 1.45219 0
M  V30 2944 C 284.234 0.638059 1.53356 0
M  V30 2945 O 285.419 0.879852 1.69302 0
M  V30 2946 C 282.559 1.98623 2.82211 0
M  V30 2947 C 281.672 3.26337 2.8307 0
M  V30 2948 C 280.807 3.35779 4.11614 0
M  V30 2949 C 279.846 4.5754 4.06601 0
M  V30 2950 N 278.983 4.64155 5.26787 0
M  V30 2951 H 283.823 2.71794 1.22198 0
M  V30 2952 H 281.36 1.34642 0.592444 0
M  V30 2953 H 283.318 2.07761 3.61789 0
M  V30 2954 H 281.948 1.09558 3.03639 0
M  V30 2955 H 281 3.26171 1.95747 0
M  V30 2956 H 282.312 4.15988 2.75237 0
M  V30 2957 H 281.466 3.44208 4.99606 0
M  V30 2958 H 280.205 2.44137 4.22195 0
M  V30 2959 H 279.21 4.49215 3.16996 0
M  V30 2960 H 280.435 5.50519 3.97625 0
M  V30 2961 H 278.381 3.75413 5.3796 0
M  V30 2962 H 278.298 5.47706 5.21109 0
M  V30 2963 H 279.566 4.76863 6.16621 0
M  V30 2964 N 283.795 -0.628877 1.44509 0
M  V30 2965 C 285.041 -1.39045 1.47629 0
M  V30 2966 C 285.374 -1.93892 0.109343 0
M  V30 2967 O 284.649 -1.7379 -0.87334 0
M  V30 2968 C 284.932 -2.55408 2.53848 0
M  V30 2969 C 284.785 -2.05896 3.99909 0
M  V30 2970 C 286.104 -3.5759 2.56549 0
M  V30 2971 H 283.223 -0.504232 0.537512 0
M  V30 2972 H 285.865 -0.710854 1.76201 0
M  V30 2973 H 284.015 -3.13384 2.29615 0
M  V30 2974 H 285.687 -1.52734 4.35282 0
M  V30 2975 H 283.93 -1.37061 4.11578 0
M  V30 2976 H 284.601 -2.89681 4.69882 0
M  V30 2977 H 287.077 -3.09419 2.78207 0
M  V30 2978 H 285.953 -4.36527 3.32769 0
M  V30 2979 H 286.214 -4.11808 1.60832 0
M  V30 2980 N 285.273 -1.31445 -0.869486 0
M  V30 2981 C 286.52 -1.21158 -1.62256 0
M  V30 2982 C 286.848 0.230155 -1.93133 0
M  V30 2983 O 286.103 1.17906 -1.56194 0
M  V30 2984 C 286.402 -2.00145 -2.96102 0
M  V30 2985 C 286.068 -3.4964 -2.84715 0
M  V30 2986 C 284.73 -3.90403 -2.81317 0
M  V30 2987 C 287.082 -4.44769 -2.71716 0
M  V30 2988 C 284.41 -5.24561 -2.62778 0
M  V30 2989 C 286.762 -5.79054 -2.54714 0
M  V30 2990 C 285.426 -6.19037 -2.49699 0
M  V30 2991 H 284.696 -0.443348 -0.593737 0
M  V30 2992 H 287.343 -1.62715 -1.00976 0
M  V30 2993 H 285.648 -1.5127 -3.6142 0
M  V30 2994 H 287.345 -1.89566 -3.53363 0
M  V30 2995 H 283.935 -3.17256 -2.88178 0
M  V30 2996 H 288.119 -4.14208 -2.73397 0
M  V30 2997 H 283.375 -5.54613 -2.57321 0
M  V30 2998 H 287.549 -6.52393 -2.43632 0
M  V30 2999 H 285.176 -7.22935 -2.35093 0
M  V30 3000 N 286.751 1.08385 -1.14413 0
M  V30 3001 C 287.979 1.84517 -0.936001 0
M  V30 3002 C 288.394 1.81626 0.515503 0
M  V30 3003 O 287.751 1.22008 1.35721 0
M  V30 3004 C 287.802 3.32049 -1.42918 0
M  V30 3005 O 287.523 3.34951 -2.82381 0
M  V30 3006 C 289.024 4.24986 -1.26103 0
M  V30 3007 H 286.244 0.582491 -0.333084 0
M  V30 3008 H 288.788 1.36885 -1.5193 0
M  V30 3009 H 286.943 3.7707 -0.888641 0
M  V30 3010 H 287.357 4.27048 -3.04517 0
M  V30 3011 H 288.831 5.26615 -1.6547 0
M  V30 3012 H 289.308 4.38726 -0.20392 0
M  V30 3013 H 289.914 3.85791 -1.79012 0
M  V30 3014 N 288.23 0.939286 1.26551 0
M  V30 3015 C 289.193 0.451987 2.24699 0
M  V30 3016 C 290.193 -0.435869 1.5478 0
M  V30 3017 O 291.383 -0.235314 1.72603 0
M  V30 3018 C 288.515 -0.348801 3.39111 0
M  V30 3019 H 289.708 1.3193 2.69322 0
M  V30 3020 H 287.261 0.721072 1.38673 0
M  V30 3021 H 287.996 -1.23444 2.99887 0
M  V30 3022 H 287.781 0.287945 3.91041 0
M  V30 3023 H 289.271 -0.679726 4.12031 0
M  V30 3024 N 289.708 -1.40897 0.706093 0
M  V30 3025 C 290.954 -2.01352 0.241889 0
M  V30 3026 C 291.287 -1.55832 -1.15888 0
M  V30 3027 O 290.562 -0.774145 -1.7843 0
M  V30 3028 C 290.845 -3.58752 0.311311 0
M  V30 3029 C 290.698 -4.1437 1.74978 0
M  V30 3030 C 292.017 -4.38914 -0.322922 0
M  V30 3031 H 289.136 -0.731562 0.0893687 0
M  V30 3032 H 291.778 -1.67504 0.896802 0
M  V30 3033 H 289.928 -3.87718 -0.246302 0
M  V30 3034 H 291.6 -3.96239 2.36205 0
M  V30 3035 H 289.843 -3.69016 2.28057 0
M  V30 3036 H 290.514 -5.23532 1.74981 0
M  V30 3037 H 292.99 -4.15822 0.152089 0
M  V30 3038 H 291.866 -5.48358 -0.243855 0
M  V30 3039 H 292.127 -4.19176 -1.40513 0
M  V30 3040 N 291.186 -0.45159 -1.50991 0
M  V30 3041 C 292.134 0.366864 -2.29689 0
M  V30 3042 C 293.128 1.00809 -1.36139 0
M  V30 3043 O 294.334 0.941427 -1.53418 0
M  V30 3044 H 290.709 0.137133 -0.739391 0
M  V30 3045 H 292.68 -0.317538 -2.96706 0
M  V30 3046 C 291.429 1.44751 -3.16137 0
M  V30 3047 H 290.752 0.963473 -3.88017 0
M  V30 3048 H 292.192 1.99315 -3.74232 0
M  V30 3049 C 290.651 2.43869 -2.32442 0
M  V30 3050 O 291.181 3.4872 -1.99392 0
M  V30 3051 N 289.387 2.15105 -1.95392 0
M  V30 3052 H 288.934 1.29866 -2.22469 0
M  V30 3053 H 288.892 2.81661 -1.39693 0
M  V30 3054 N 292.664 1.56529 -0.183458 0
M  V30 3055 C 293.913 1.96419 0.458511 0
M  V30 3056 C 294.226 1.0727 1.63562 0
M  V30 3057 O 295.432 1.36893 2.34462 0
M  V30 3058 C 293.888 3.49298 0.867122 0
M  V30 3059 C 293.496 4.47092 -0.285057 0
M  V30 3060 C 295.24 3.97983 1.47683 0
M  V30 3061 C 293.147 5.91225 0.143862 0
M  V30 3062 H 292.077 0.733394 0.175071 0
M  V30 3063 H 294.728 1.81448 -0.273624 0
M  V30 3064 H 293.11 3.59731 1.65559 0
M  V30 3065 H 294.284 4.48383 -1.0625 0
M  V30 3066 H 292.599 4.08535 -0.805503 0
M  V30 3067 H 295.196 5.03134 1.80999 0
M  V30 3068 H 295.539 3.41618 2.37914 0
M  V30 3069 H 296.072 3.90617 0.752562 0
M  V30 3070 H 292.811 6.5149 -0.723974 0
M  V30 3071 H 292.331 5.93214 0.886413 0
M  V30 3072 H 294.01 6.44362 0.583628 0
M  V30 3073 N 294.142 -0.090211 1.57342 0
M  V30 3074 C 295.072 -1.10976 2.05443 0
M  V30 3075 C 296.053 -1.41482 0.944284 0
M  V30 3076 O 297.238 -1.51428 1.21586 0
M  V30 3077 C 294.368 -2.42831 2.48295 0
M  V30 3078 C 293.322 -2.26721 3.63018 0
M  V30 3079 C 292.648 -3.63796 3.91863 0
M  V30 3080 C 293.948 -1.7037 4.93732 0
M  V30 3081 H 295.642 -0.709564 2.9087 0
M  V30 3082 H 293.188 -0.339874 1.39932 0
M  V30 3083 H 295.141 -3.14431 2.80555 0
M  V30 3084 H 293.865 -2.84795 1.59873 0
M  V30 3085 H 292.524 -1.57565 3.31012 0
M  V30 3086 H 292.172 -4.03297 3.00601 0
M  V30 3087 H 291.872 -3.53861 4.69101 0
M  V30 3088 H 293.396 -4.36855 4.26603 0
M  V30 3089 H 294.81 -2.31816 5.24342 0
M  V30 3090 H 293.207 -1.71181 5.75167 0
M  V30 3091 H 294.277 -0.663542 4.80339 0
M  V30 3092 N 295.62 -1.53406 -0.361157 0
M  V30 3093 C 296.866 -1.70054 -1.10496 0
M  V30 3094 C 297.199 -0.453278 -1.88836 0
M  V30 3095 O 296.474 0.5495 -1.86576 0
M  V30 3096 C 296.757 -2.95317 -2.06058 0
M  V30 3097 C 296.61 -4.3021 -1.31298 0
M  V30 3098 C 297.929 -3.16193 -3.06121 0
M  V30 3099 H 295.048 -0.618799 -0.400321 0
M  V30 3100 H 297.69 -1.86052 -0.385318 0
M  V30 3101 H 295.84 -2.81809 -2.67425 0
M  V30 3102 H 297.512 -4.55538 -0.726807 0
M  V30 3103 H 295.755 -4.29421 -0.614853 0
M  V30 3104 H 296.426 -5.14 -2.01265 0
M  V30 3105 H 298.902 -3.28916 -2.5486 0
M  V30 3106 H 297.778 -4.05266 -3.70204 0
M  V30 3107 H 298.039 -2.31676 -3.76535 0
M  V30 3108 N 297.098 0.621204 -1.44841 0
M  V30 3109 C 298.028 1.74366 -1.55303 0
M  V30 3110 C 299.009 1.65199 -0.405385 0
M  V30 3111 O 300.194 1.83807 -0.626787 0
M  V30 3112 C 297.324 3.12931 -1.50637 0
M  V30 3113 C 296.278 3.36896 -2.63979 0
M  V30 3114 C 295.604 4.75594 -2.44366 0
M  V30 3115 C 296.904 3.28483 -4.06074 0
M  V30 3116 H 298.598 1.65867 -2.49256 0
M  V30 3117 H 296.144 0.796558 -1.19962 0
M  V30 3118 H 298.097 3.9124 -1.56555 0
M  V30 3119 H 296.821 3.22237 -0.532057 0
M  V30 3120 H 295.48 2.60972 -2.57467 0
M  V30 3121 H 295.128 4.81616 -1.45105 0
M  V30 3122 H 294.828 4.92586 -3.20364 0
M  V30 3123 H 296.352 5.5612 -2.52117 0
M  V30 3124 H 297.766 3.96684 -4.13902 0
M  V30 3125 H 296.163 3.57008 -4.82354 0
M  V30 3126 H 297.233 2.26133 -4.28943 0
M  V30 3127 N 298.576 1.31904 0.862503 0
M  V30 3128 C 299.506 1.22782 1.98612 0
M  V30 3129 C 300.487 0.113362 1.69722 0
M  V30 3130 O 301.672 0.299218 1.91881 0
M  V30 3131 C 298.802 0.942058 3.34279 0
M  V30 3132 C 297.756 2.0169 3.77499 0
M  V30 3133 C 297.082 1.58369 5.10709 0
M  V30 3134 C 298.382 3.43096 3.93805 0
M  V30 3135 H 300.076 2.16788 2.06502 0
M  V30 3136 H 297.622 1.04366 0.992154 0
M  V30 3137 H 299.575 0.864818 4.1243 0
M  V30 3138 H 298.299 -0.0336603 3.26583 0
M  V30 3139 H 296.958 2.08416 3.01593 0
M  V30 3140 H 296.606 0.595628 4.99461 0
M  V30 3141 H 296.306 2.30279 5.40597 0
M  V30 3142 H 297.83 1.52067 5.91361 0
M  V30 3143 H 299.244 3.39003 4.62331 0
M  V30 3144 H 297.641 4.13288 4.35101 0
M  V30 3145 H 298.711 3.83334 2.96957 0
M  V30 3146 N 300.054 -1.07777 1.14986 0
M  V30 3147 C 301.301 -1.8029 0.922056 0
M  V30 3148 C 301.629 -1.86531 -0.55105 0
M  V30 3149 O 300.884 -1.34189 -1.42449 0
M  V30 3150 C 301.183 -3.25495 1.47608 0
M  V30 3151 C 300.849 -3.39361 2.96893 0
M  V30 3152 C 299.511 -3.42852 3.37647 0
M  V30 3153 C 301.863 -3.42512 3.92854 0
M  V30 3154 C 299.191 -3.47094 4.73015 0
M  V30 3155 C 301.543 -3.4829 5.28088 0
M  V30 3156 C 300.207 -3.50058 5.68345 0
M  V30 3157 H 299.477 -0.659727 0.337404 0
M  V30 3158 H 302.124 -1.26854 1.43459 0
M  V30 3159 H 300.429 -3.81683 0.88463 0
M  V30 3160 H 302.126 -3.80168 1.27568 0
M  V30 3161 H 298.716 -3.37339 2.64387 0
M  V30 3162 H 302.9 -3.3904 3.62444 0
M  V30 3163 H 298.156 -3.46758 5.03556 0
M  V30 3164 H 302.33 -3.49675 6.02246 0
M  V30 3165 H 299.957 -3.53097 6.73221 0
M  V30 3166 N 301.532 -0.945985 -1.26051 0
M  V30 3167 C 302.778 -0.597002 -1.93814 0
M  V30 3168 C 303.111 0.862484 -1.73997 0
M  V30 3169 O 302.386 1.61769 -1.07986 0
M  V30 3170 C 302.669 -0.945937 -3.47454 0
M  V30 3171 C 302.522 -2.46052 -3.76535 0
M  V30 3172 C 303.841 -0.464785 -4.37639 0
M  V30 3173 H 300.96 -0.218366 -0.703907 0
M  V30 3174 H 303.602 -1.18107 -1.48831 0
M  V30 3175 H 301.752 -0.448902 -3.85898 0
M  V30 3176 H 303.424 -3.03065 -3.47778 0
M  V30 3177 H 301.667 -2.90194 -3.22444 0
M  V30 3178 H 302.338 -2.65517 -4.83947 0
M  V30 3179 H 304.814 -0.891016 -4.06448 0
M  V30 3180 H 303.69 -0.737712 -5.4392 0
M  V30 3181 H 303.951 0.635274 -4.37512 0
M  V30 3182 N 303.011 1.40521 -0.713556 0
M  V30 3183 C 303.944 2.28198 -0.00881422 0
M  V30 3184 C 304.922 1.43227 0.769735 0
M  V30 3185 O 306.106 1.72641 0.756799 0
M  V30 3186 C 303.233 3.23758 0.994899 0
M  V30 3187 C 302.279 4.25391 0.3074 0
M  V30 3188 S 303.112 5.26765 -0.963247 0
M  V30 3189 C 304.268 6.25888 0.0384143 0
M  V30 3190 H 304.501 2.87622 -0.752407 0
M  V30 3191 H 302.034 1.45925 -0.504502 0
M  V30 3192 H 303.992 3.79341 1.56879 0
M  V30 3193 H 302.653 2.63396 1.71118 0
M  V30 3194 H 301.846 4.92596 1.0661 0
M  V30 3195 H 301.448 3.73497 -0.193879 0
M  V30 3196 H 303.74 6.71683 0.885912 0
M  V30 3197 H 304.683 7.05552 -0.60019 0
M  V30 3198 H 305.091 5.63072 0.401233 0
M  V30 3199 N 304.489 0.459591 1.5075 0
M  V30 3200 C 305.735 -0.0994966 2.02556 0
M  V30 3201 C 306.068 -1.40399 1.3417 0
M  V30 3202 O 305.343 -1.88892 0.463683 0
M  V30 3203 C 305.626 -0.295242 3.58888 0
M  V30 3204 C 305.479 1.02947 4.37861 0
M  V30 3205 C 306.798 -1.05502 4.27267 0
M  V30 3206 H 303.917 -0.034686 0.736183 0
M  V30 3207 H 306.559 0.602938 1.8018 0
M  V30 3208 H 304.709 -0.893563 3.78084 0
M  V30 3209 H 306.381 1.66348 4.30263 0
M  V30 3210 H 304.624 1.62885 4.02058 0
M  V30 3211 H 305.295 0.846281 5.45474 0
M  V30 3212 H 307.771 -0.547993 4.12476 0
M  V30 3213 H 306.647 -1.16077 5.36486 0
M  V30 3214 H 306.908 -2.08875 3.89645 0
M  V30 3215 N 305.967 -1.56429 0.191757 0
M  V30 3216 C 306.93 -2.17707 -0.716688 0
M  V30 3217 C 307.93 -1.13061 -1.14341 0
M  V30 3218 O 309.12 -1.38464 -1.05704 0
M  V30 3219 C 306.252 -2.77644 -1.97804 0
M  V30 3220 H 307.445 -2.99342 -0.1829 0
M  V30 3221 H 304.998 -1.56193 -0.0578566 0
M  V30 3222 H 305.733 -1.99799 -2.55443 0
M  V30 3223 H 305.518 -3.54246 -1.68083 0
M  V30 3224 H 307.008 -3.24708 -2.62592 0
M  V30 3225 N 307.445 0.0818655 -1.57387 0
M  V30 3226 C 308.693 0.781368 -1.86384 0
M  V30 3227 C 309.014 1.78618 -0.782342 0
M  V30 3228 O 308.284 1.94976 0.190061 0
M  V30 3229 H 306.864 0.291562 -0.687751 0
M  V30 3230 H 309.526 0.060348 -1.94807 0
M  V30 3231 H 308.622 1.3038 -2.83562 0
M  V30 3232 N 308.923 1.53595 0.353017 0
M  V30 3233 C 310.17 1.70385 1.09431 0
M  V30 3234 C 310.498 0.462113 1.88931 0
M  V30 3235 O 309.753 -0.556074 1.87633 0
M  V30 3236 C 310.052 2.91313 2.07054 0
M  V30 3237 C 309.718 4.27308 1.43939 0
M  V30 3238 C 308.38 4.64287 1.26454 0
M  V30 3239 C 310.732 5.11829 0.983883 0
M  V30 3240 C 308.06 5.83412 0.620226 0
M  V30 3241 C 310.412 6.31611 0.353516 0
M  V30 3242 C 309.076 6.67293 0.166272 0
M  V30 3243 H 308.346 0.623484 0.400436 0
M  V30 3244 H 310.993 1.87799 0.374655 0
M  V30 3245 H 309.298 2.68463 2.85368 0
M  V30 3246 H 310.995 3.01497 2.64387 0
M  V30 3247 H 307.585 3.98198 1.58543 0
M  V30 3248 H 311.769 4.838 1.10685 0
M  V30 3249 H 307.025 6.09639 0.463681 0
M  V30 3250 H 311.199 6.964 -0.00757555 0
M  V30 3251 H 308.826 7.59461 -0.335047 0
M  V30 3252 N 310.401 -0.613514 1.45168 0
M  V30 3253 C 311.647 -1.37471 1.49096 0
M  V30 3254 C 311.98 -1.93765 0.129901 0
M  V30 3255 O 311.255 -1.74707 -0.854858 0
M  V30 3256 C 311.538 -2.52701 2.56542 0
M  V30 3257 C 311.391 -2.01643 4.0207 0
M  V30 3258 C 312.71 -3.54849 2.60327 0
M  V30 3259 H 309.829 -0.498502 0.54283 0
M  V30 3260 H 312.471 -0.692125 1.76945 0
M  V30 3261 H 310.621 -3.10931 2.32926 0
M  V30 3262 H 312.293 -1.48108 4.36877 0
M  V30 3263 H 310.536 -1.32688 4.13009 0
M  V30 3264 H 311.207 -2.84681 4.72928 0
M  V30 3265 H 313.683 -3.0645 2.81474 0
M  V30 3266 H 312.559 -4.32973 3.37381 0
M  V30 3267 H 312.82 -4.10079 1.6519 0
M  V30 3268 N 311.879 -1.3236 -0.855495 0
M  V30 3269 C 312.826 -1.21225 -1.964 0
M  V30 3270 C 313.796 -0.0946204 -1.6583 0
M  V30 3271 O 314.981 -0.27002 -1.8888 0
M  V30 3272 C 312.121 -0.940419 -3.32039 0
M  V30 3273 C 311.234 -2.14276 -3.75113 0
M  V30 3274 C 310.369 -1.80648 -4.9954 0
M  V30 3275 C 309.408 -2.97208 -5.35102 0
M  V30 3276 N 308.545 -2.63678 -6.50706 0
M  V30 3277 H 313.385 -2.16042 -2.05255 0
M  V30 3278 H 310.922 -1.07451 -1.00463 0
M  V30 3279 H 312.88 -0.763311 -4.10158 0
M  V30 3280 H 311.51 -0.0290413 -3.22787 0
M  V30 3281 H 310.562 -2.43017 -2.92655 0
M  V30 3282 H 311.874 -3.01468 -3.97389 0
M  V30 3283 H 311.028 -1.59484 -5.85363 0
M  V30 3284 H 309.767 -0.906678 -4.79198 0
M  V30 3285 H 308.772 -3.19004 -4.47791 0
M  V30 3286 H 309.997 -3.87918 -5.57401 0
M  V30 3287 H 307.943 -1.76238 -6.31883 0
M  V30 3288 H 307.86 -3.444 -6.72997 0
M  V30 3289 H 309.128 -2.45942 -7.39684 0
M  V30 3290 N 313.357 1.07166 -1.15556 0
M  V30 3291 C 314.605 1.79443 -0.929764 0
M  V30 3292 C 314.926 1.87246 0.544414 0
M  V30 3293 O 314.196 1.37473 1.39564 0
M  V30 3294 H 312.776 0.664625 -0.341003 0
M  V30 3295 H 315.438 1.29499 -1.45657 0
M  V30 3296 H 314.534 2.81832 -1.34079 0
M  V30 3297 N 314.835 0.952656 1.25548 0
M  V30 3298 C 315.783 0.462354 2.27958 0
M  V30 3299 C 316.777 -0.46634 1.62855 0
M  V30 3300 O 317.983 -0.343287 1.76696 0
M  V30 3301 H 314.358 0.13101 0.7405 0
M  V30 3302 H 316.329 1.33839 2.66702 0
M  V30 3303 C 315.078 -0.24628 3.46827 0
M  V30 3304 H 314.401 0.459192 3.97154 0
M  V30 3305 H 315.841 -0.553393 4.20373 0
M  V30 3306 C 314.3 -1.4681 3.0323 0
M  V30 3307 O 314.83 -2.56591 3.09069 0
M  V30 3308 N 313.036 -1.32874 2.58443 0
M  V30 3309 H 312.583 -0.435536 2.53891 0
M  V30 3310 H 312.541 -2.14742 2.29637 0
M  V30 3311 N 316.313 -1.40141 0.720998 0
M  V30 3312 C 317.559 -2.01084 0.263231 0
M  V30 3313 C 317.892 -1.57052 -1.14229 0
M  V30 3314 O 317.167 -0.793027 -1.77599 0
M  V30 3315 C 317.45 -3.58401 0.349344 0
M  V30 3316 C 317.303 -4.12491 1.79363 0
M  V30 3317 C 318.622 -4.39231 -0.276351 0
M  V30 3318 H 315.741 -0.730572 0.0971228 0
M  V30 3319 H 318.383 -1.66543 0.914518 0
M  V30 3320 H 316.533 -3.87958 -0.205165 0
M  V30 3321 H 318.205 -3.93711 2.40394 0
M  V30 3322 H 316.448 -3.66576 2.31958 0
M  V30 3323 H 317.119 -5.21646 1.80524 0
M  V30 3324 H 319.595 -4.15637 0.196184 0
M  V30 3325 H 318.471 -5.48586 -0.185681 0
M  V30 3326 H 318.732 -4.20643 -1.36059 0
M  V30 3327 N 317.792 -0.46758 -1.50504 0
M  V30 3328 C 318.755 0.317059 -2.26996 0
M  V30 3329 C 319.755 0.923513 -1.31635 0
M  V30 3330 O 320.945 0.793239 -1.55091 0
M  V30 3331 C 318.077 1.45134 -3.08462 0
M  V30 3332 H 319.27 -0.353723 -2.97807 0
M  V30 3333 H 316.823 -0.221545 -1.54722 0
M  V30 3334 H 317.558 2.15728 -2.4214 0
M  V30 3335 H 317.343 1.02232 -3.78538 0
M  V30 3336 H 318.833 2.00493 -3.66323 0
M  V30 3337 N 319.27 1.56325 -0.20005 0
M  V30 3338 C 320.218 2.20666 0.735482 0
M  V30 3339 C 321.212 1.17934 1.21605 0
M  V30 3340 O 322.418 1.36068 1.17837 0
M  V30 3341 H 318.793 0.70725 0.255542 0
M  V30 3342 H 320.764 2.9792 0.169166 0
M  V30 3343 C 319.513 2.88391 1.94232 0
M  V30 3344 H 318.836 3.67185 1.58161 0
M  V30 3345 H 320.276 3.3684 2.57517 0
M  V30 3346 C 318.735 1.89692 2.78421 0
M  V30 3347 O 319.265 1.40032 3.76502 0
M  V30 3348 N 317.471 1.57813 2.44015 0
M  V30 3349 H 317.018 1.9839 1.64314 0
M  V30 3350 H 316.976 0.920325 3.00628 0
M  V30 3351 N 320.748 -0.0735177 1.57428 0
M  V30 3352 C 321.994 -0.768909 1.88307 0
M  V30 3353 C 322.349 -1.75273 0.793535 0
M  V30 3354 O 321.642 -1.90527 -0.202466 0
M  V30 3355 C 321.836 -1.51799 3.23561 0
M  V30 3356 C 321.665 -0.608217 4.45568 0
M  V30 3357 C 320.435 -0.245808 5.04702 0
M  V30 3358 C 322.633 0.0942904 5.14214 0
M  V30 3359 N 320.615 0.66987 6.10234 0
M  V30 3360 C 321.986 0.867222 6.13905 0
M  V30 3361 C 324.041 0.165943 4.97623 0
M  V30 3362 C 322.744 1.70515 6.98797 0
M  V30 3363 C 324.77 0.990837 5.83041 0
M  V30 3364 C 324.132 1.75182 6.82269 0
M  V30 3365 H 320.231 -0.25685 0.738615 0
M  V30 3366 H 322.815 -0.030499 1.94676 0
M  V30 3367 H 320.986 -2.22713 3.18203 0
M  V30 3368 H 322.718 -2.16226 3.42094 0
M  V30 3369 H 319.473 -0.598284 4.69806 0
M  V30 3370 H 319.897 1.1209 6.67656 0
M  V30 3371 H 324.539 -0.408064 4.20826 0
M  V30 3372 H 322.257 2.29013 7.7497 0
M  V30 3373 H 325.843 1.04923 5.72261 0
M  V30 3374 H 324.723 2.37983 7.47217 0
M  V30 3375 N 322.226 -1.5378 -0.344866 0
M  V30 3376 C 323.173 -1.81676 -1.42346 0
M  V30 3377 C 324.143 -0.662376 -1.52321 0
M  V30 3378 O 325.328 -0.906675 -1.67881 0
M  V30 3379 C 322.468 -2.03087 -2.79015 0
M  V30 3380 C 321.581 -3.30799 -2.77842 0
M  V30 3381 C 320.716 -3.42285 -4.0622 0
M  V30 3382 C 319.755 -4.6395 -3.9927 0
M  V30 3383 N 318.892 -4.72477 -5.19336 0
M  V30 3384 H 323.732 -2.73703 -1.17858 0
M  V30 3385 H 321.269 -1.35568 -0.570949 0
M  V30 3386 H 323.227 -2.1349 -3.58438 0
M  V30 3387 H 321.857 -1.14375 -3.01858 0
M  V30 3388 H 320.909 -3.29244 -1.90533 0
M  V30 3389 H 322.221 -4.20314 -2.68584 0
M  V30 3390 H 321.375 -3.52113 -4.94066 0
M  V30 3391 H 320.114 -2.50823 -4.18258 0
M  V30 3392 H 319.119 -4.54201 -3.09809 0
M  V30 3393 H 320.344 -5.56775 -3.88817 0
M  V30 3394 H 318.29 -3.83924 -5.3192 0
M  V30 3395 H 318.207 -5.55927 -5.12329 0
M  V30 3396 H 319.475 -4.86613 -6.08957 0
M  V30 3397 N 323.704 0.605807 -1.45491 0
M  V30 3398 C 324.953 1.36086 -1.48874 0
M  V30 3399 C 325.266 1.95131 -0.135333 0
M  V30 3400 O 326.472 2.7146 -0.0468144 0
M  V30 3401 C 324.928 2.46518 -2.62215 0
M  V30 3402 C 324.536 1.93877 -4.03876 0
M  V30 3403 C 326.28 3.23512 -2.74846 0
M  V30 3404 C 324.187 3.01801 -5.08596 0
M  V30 3405 H 323.117 0.511497 -0.553974 0
M  V30 3406 H 325.768 0.649089 -1.71636 0
M  V30 3407 H 324.15 3.20388 -2.32739 0
M  V30 3408 H 325.324 1.26704 -4.43038 0
M  V30 3409 H 323.639 1.29622 -3.95711 0
M  V30 3410 H 326.236 4.04013 -3.50253 0
M  V30 3411 H 326.579 3.74631 -1.81542 0
M  V30 3412 H 327.112 2.56742 -3.03856 0
M  V30 3413 H 323.851 2.55597 -6.03614 0
M  V30 3414 H 323.371 3.67535 -4.74002 0
M  V30 3415 H 325.05 3.66152 -5.33424 0
M  V30 3416 N 325.182 1.32811 0.848464 0
M  V30 3417 C 326.407 1.26882 1.6406 0
M  V30 3418 C 326.832 -0.15913 1.87426 0
M  V30 3419 O 326.19 -1.11258 1.43148 0
M  V30 3420 C 326.238 2.03997 2.97351 0
M  V30 3421 O 325.342 1.39201 3.88197 0
M  V30 3422 H 324.683 0.436982 0.499943 0
M  V30 3423 H 327.213 1.75224 1.0563 0
M  V30 3424 H 327.223 2.14403 3.47124 0
M  V30 3425 H 325.898 3.0783 2.79666 0
M  V30 3426 H 324.475 1.37381 3.46671 0
M  V30 3427 N 326.66 -1.06551 1.16123 0
M  V30 3428 C 327.57 -2.17484 0.879662 0
M  V30 3429 C 328.586 -1.73377 -0.147104 0
M  V30 3430 O 329.762 -2.01379 0.0289128 0
M  V30 3431 C 326.827 -3.44591 0.381829 0
M  V30 3432 C 325.888 -4.0322 1.4735 0
M  V30 3433 C 325.121 -5.24261 0.999324 0
M  V30 3434 O 325.344 -5.70198 -0.151957 0
M  V30 3435 O 324.278 -5.74775 1.78653 0
M  V30 3436 H 328.104 -2.44075 1.80724 0
M  V30 3437 H 325.689 -1.16042 0.940992 0
M  V30 3438 H 327.571 -4.21254 0.111053 0
M  V30 3439 H 326.246 -3.19532 -0.51777 0
M  V30 3440 H 325.153 -3.2806 1.79798 0
M  V30 3441 H 326.486 -4.32568 2.34831 0
M  V30 3442 N 328.138 -0.959301 -1.25041 0
M  V30 3443 C 329.048 -0.489994 -2.29426 0
M  V30 3444 C 330.064 0.444944 -1.68215 0
M  V30 3445 O 331.24 0.320046 -1.98841 0
M  V30 3446 C 328.305 0.220309 -3.45999 0
M  V30 3447 C 327.366 -0.753418 -4.22637 0
M  V30 3448 C 326.599 -0.076918 -5.33645 0
M  V30 3449 O 326.822 1.13649 -5.58963 0
M  V30 3450 O 325.756 -0.764824 -5.97021 0
M  V30 3451 H 329.582 -1.35755 -2.71669 0
M  V30 3452 H 327.167 -0.725961 -1.30576 0
M  V30 3453 H 329.049 0.619677 -4.16819 0
M  V30 3454 H 327.724 1.06296 -3.0575 0
M  V30 3455 H 326.631 -1.20308 -3.54227 0
M  V30 3456 H 327.964 -1.56423 -4.66683 0
M  V30 3457 N 329.616 1.39756 -0.72842 0
M  V30 3458 C 330.863 2.00645 -0.273487 0
M  V30 3459 C 331.191 1.57786 1.13727 0
M  V30 3460 O 330.446 0.794886 1.7883 0
M  V30 3461 C 330.745 3.56002 -0.315776 0
M  V30 3462 C 330.411 4.18489 -1.67863 0
M  V30 3463 C 329.073 4.3527 -2.05166 0
M  V30 3464 C 331.425 4.53219 -2.57375 0
M  V30 3465 C 328.753 4.84069 -3.31503 0
M  V30 3466 C 331.105 5.03423 -3.83077 0
M  V30 3467 C 329.769 5.18413 -4.20481 0
M  V30 3468 H 329.039 0.734211 -0.100076 0
M  V30 3469 H 331.686 1.6718 -0.933972 0
M  V30 3470 H 329.991 3.89452 0.428285 0
M  V30 3471 H 331.688 4.00963 0.0542575 0
M  V30 3472 H 328.278 4.05824 -1.37858 0
M  V30 3473 H 332.462 4.39878 -2.29827 0
M  V30 3474 H 327.718 4.93859 -3.60435 0
M  V30 3475 H 331.892 5.2927 -4.52599 0
M  V30 3476 H 329.519 5.55987 -5.18443 0
M  V30 3477 N 331.094 0.475555 1.50254 0
M  V30 3478 C 332.024 -0.30611 2.31485 0
M  V30 3479 C 333.005 -0.986228 1.38591 0
M  V30 3480 O 334.19 -0.982541 1.67511 0
M  V30 3481 C 331.32 -1.38588 3.1845 0
M  V30 3482 C 330.274 -0.827115 4.19932 0
M  V30 3483 C 329.6 -2.00551 4.95665 0
M  V30 3484 C 330.9 0.16463 5.2204 0
M  V30 3485 H 332.594 0.371866 2.97082 0
M  V30 3486 H 330.14 0.180282 1.42867 0
M  V30 3487 H 332.093 -1.94023 3.74076 0
M  V30 3488 H 330.817 -2.09269 2.50747 0
M  V30 3489 H 329.476 -0.294702 3.65414 0
M  V30 3490 H 329.124 -2.6994 4.2443 0
M  V30 3491 H 328.824 -1.63784 5.64313 0
M  V30 3492 H 330.348 -2.56468 5.54127 0
M  V30 3493 H 331.762 -0.300699 5.72511 0
M  V30 3494 H 330.159 0.446813 5.98434 0
M  V30 3495 H 331.229 1.08905 4.72512 0
M  V30 3496 N 332.573 -1.56217 0.208337 0
M  V30 3497 C 333.52 -2.19699 -0.707192 0
M  V30 3498 C 334.49 -1.14836 -1.20008 0
M  V30 3499 O 335.675 -1.4314 -1.26157 0
M  V30 3500 C 332.815 -2.87061 -1.91546 0
M  V30 3501 C 331.928 -4.06483 -1.46271 0
M  V30 3502 C 331.063 -4.61665 -2.62752 0
M  V30 3503 C 330.102 -5.73417 -2.14147 0
M  V30 3504 N 329.239 -6.22948 -3.23853 0
M  V30 3505 H 334.079 -2.97575 -0.159111 0
M  V30 3506 H 331.616 -1.46948 -0.0667874 0
M  V30 3507 H 333.574 -3.24294 -2.62468 0
M  V30 3508 H 332.204 -2.11725 -2.43664 0
M  V30 3509 H 331.256 -3.74825 -0.648886 0
M  V30 3510 H 332.568 -4.87271 -1.06622 0
M  V30 3511 H 331.722 -5.01272 -3.41776 0
M  V30 3512 H 330.461 -3.80013 -3.05682 0
M  V30 3513 H 329.466 -5.33326 -1.33581 0
M  V30 3514 H 330.691 -6.56897 -1.72232 0
M  V30 3515 H 328.637 -5.44213 -3.6629 0
M  V30 3516 H 328.554 -6.98823 -2.88414 0
M  V30 3517 H 329.822 -6.6721 -4.03052 0
M  V30 3518 N 334.051 0.0651679 -1.57465 0
M  V30 3519 C 334.999 1.09542 -2.05191 0
M  V30 3520 C 335.993 1.39675 -0.958509 0
M  V30 3521 O 337.199 1.39003 -1.14359 0
M  V30 3522 H 333.574 0.370623 -0.654326 0
M  V30 3523 H 335.545 0.666802 -2.90854 0
M  V30 3524 C 334.294 2.39881 -2.51699 0
M  V30 3525 H 333.617 2.17547 -3.3543 0
M  V30 3526 H 335.057 3.104 -2.88839 0
M  V30 3527 C 333.516 3.0631 -1.40271 0
M  V30 3528 O 334.046 3.94664 -0.748523 0
M  V30 3529 N 332.252 2.67041 -1.14618 0
M  V30 3530 H 331.799 1.95281 -1.67997 0
M  V30 3531 H 331.757 3.1181 -0.402688 0
M  V30 3532 N 335.529 1.53961 0.336706 0
M  V30 3533 C 336.778 1.70751 1.07363 0
M  V30 3534 C 337.091 0.481061 1.89592 0
M  V30 3535 O 338.297 0.530046 2.66276 0
M  V30 3536 C 336.753 3.01965 1.95818 0
M  V30 3537 C 336.361 4.31971 1.18764 0
M  V30 3538 C 338.105 3.28121 2.69327 0
M  V30 3539 C 336.012 5.54255 2.06289 0
M  V30 3540 H 334.942 0.636292 0.404535 0
M  V30 3541 H 337.593 1.80459 0.332681 0
M  V30 3542 H 335.975 2.86132 2.7376 0
M  V30 3543 H 337.149 4.5853 0.456849 0
M  V30 3544 H 335.464 4.12481 0.569946 0
M  V30 3545 H 338.061 4.16673 3.35094 0
M  V30 3546 H 338.404 2.45426 3.36261 0
M  V30 3547 H 338.937 3.44762 1.98454 0
M  V30 3548 H 335.676 6.39513 1.43885 0
M  V30 3549 H 335.196 5.31935 2.77138 0
M  V30 3550 H 336.875 5.90159 2.65182 0
M  V30 3551 N 337.007 -0.598083 1.45811 0
M  V30 3552 C 338.232 -1.3881 1.54099 0
M  V30 3553 C 338.657 -1.8726 0.177578 0
M  V30 3554 O 338.015 -1.6069 -0.839541 0
M  V30 3555 C 338.063 -2.56217 2.53743 0
M  V30 3556 O 337.167 -3.5716 2.06182 0
M  V30 3557 H 336.508 -0.414024 0.519115 0
M  V30 3558 H 339.038 -0.726971 1.91249 0
M  V30 3559 H 339.048 -3.03337 2.72856 0
M  V30 3560 H 337.723 -2.20303 3.5276 0
M  V30 3561 H 336.3 -3.16624 1.96987 0
M  V30 3562 N 338.485 -1.33259 -0.841409 0
M  V30 3563 C 339.448 -1.23221 -1.9326 0
M  V30 3564 C 340.448 -0.151895 -1.60081 0
M  V30 3565 O 341.638 -0.403246 -1.69468 0
M  V30 3566 C 338.77 -0.898123 -3.28856 0
M  V30 3567 H 339.963 -2.2021 -2.03587 0
M  V30 3568 H 337.516 -1.17281 -1.03319 0
M  V30 3569 H 338.251 0.0693841 -3.24226 0
M  V30 3570 H 338.036 -1.67934 -3.54317 0
M  V30 3571 H 339.526 -0.852563 -4.08805 0
M  V30 3572 N 339.963 1.05934 -1.16686 0
M  V30 3573 C 341.188 1.83029 -0.975455 0
M  V30 3574 C 341.613 1.82096 0.471452 0
M  V30 3575 O 340.971 1.22443 1.33706 0
M  V30 3576 C 341.019 3.27372 -1.51195 0
M  V30 3577 O 340.123 4.06054 -0.720701 0
M  V30 3578 H 339.464 0.566194 -0.346872 0
M  V30 3579 H 341.994 1.33541 -1.55009 0
M  V30 3580 H 342.004 3.78186 -1.53099 0
M  V30 3581 H 340.679 3.27366 -2.56523 0
M  V30 3582 H 339.256 3.64812 -0.772458 0
M  V30 3583 N 341.441 0.965919 1.2453 0
M  V30 3584 C 342.404 0.499547 2.2369 0
M  V30 3585 C 343.404 -0.40294 1.5567 0
M  V30 3586 O 344.594 -0.19865 1.73064 0
M  V30 3587 C 341.726 -0.276792 3.39774 0
M  V30 3588 H 342.919 1.37613 2.66463 0
M  V30 3589 H 340.472 0.750324 1.37112 0
M  V30 3590 H 341.207 -1.17055 3.02438 0
M  V30 3591 H 340.992 0.370826 3.90343 0
M  V30 3592 H 342.482 -0.592175 4.1338 0
M  V30 3593 N 342.919 -1.39368 0.735821 0
M  V30 3594 C 344.335 -1.54204 0.411492 0
M  V30 3595 C 344.535 -1.70268 -1.07755 0
M  V30 3596 O 343.591 -1.70364 -1.86366 0
M  V30 3597 C 344.904 -2.75925 1.19523 0
M  V30 3598 C 346.452 -2.89761 1.18354 0
M  V30 3599 C 346.927 -4.14421 1.94986 0
M  V30 3600 N 348.418 -4.21462 1.92156 0
M  V30 3601 C 349.153 -5.16871 2.48258 0
M  V30 3602 N 348.649 -6.18063 3.13001 0
M  V30 3603 N 350.442 -5.09093 2.38287 0
M  V30 3604 H 342.593 -1.27189 1.70108 0
M  V30 3605 H 344.856 -0.616517 0.720147 0
M  V30 3606 H 344.562 -2.70401 2.24892 0
M  V30 3607 H 344.436 -3.68614 0.800222 0
M  V30 3608 H 346.823 -2.94777 0.137975 0
M  V30 3609 H 346.904 -1.98133 1.61793 0
M  V30 3610 H 346.548 -4.10166 2.99543 0
M  V30 3611 H 346.478 -5.05095 1.48953 0
M  V30 3612 H 348.969 -3.48979 1.44991 0
M  V30 3613 H 349.282 -6.87326 3.53275 0
M  V30 3614 H 347.627 -6.18448 3.17091 0
M  V30 3615 H 350.818 -4.28973 1.8735 0
M  V30 3616 H 350.991 -5.83272 2.82308 0
M  V30 3617 N 344.397 -0.483516 -1.5 0
M  V30 3618 C 345.307 0.309172 -2.32554 0
M  V30 3619 C 346.323 0.984159 -1.43493 0
M  V30 3620 O 347.499 0.969399 -1.76535 0
M  V30 3621 C 344.564 1.36979 -3.18493 0
M  V30 3622 C 343.625 0.710095 -4.23387 0
M  V30 3623 C 342.858 1.72018 -5.05218 0
M  V30 3624 O 343.081 2.94813 -4.88305 0
M  V30 3625 O 342.015 1.28515 -5.8802 0
M  V30 3626 H 345.841 -0.366064 -3.01486 0
M  V30 3627 H 343.426 -0.24514 -1.47375 0
M  V30 3628 H 345.308 1.98385 -3.71781 0
M  V30 3629 H 343.983 2.02828 -2.52275 0
M  V30 3630 H 342.89 0.0567539 -3.74057 0
M  V30 3631 H 344.223 0.0943557 -4.9211 0
M  V30 3632 N 345.875 1.56104 -0.216619 0
M  V30 3633 C 347.286 1.844 0.292128 0
M  V30 3634 C 347.637 1.13788 1.59833 0
M  V30 3635 O 346.762 0.405888 2.12559 0
M  V30 3636 C 347.357 3.3452 0.53681 0
M  V30 3637 C 345.916 3.63151 0.989876 0
M  V30 3638 C 345.063 2.77255 0.0502302 0
M  V30 3639 H 348.014 1.52481 -0.439926 0
M  V30 3640 H 348.035 3.54459 1.38345 0
M  V30 3641 H 347.547 3.85885 -0.414031 0
M  V30 3642 H 345.648 3.17238 1.95425 0
M  V30 3643 H 345.761 4.71177 0.867698 0
M  V30 3644 H 344.125 2.48555 0.556117 0
M  V30 3645 H 344.908 3.31416 -0.89544 0
M  V30 3646 N 347.353 -0.0568162 1.57498 0
M  V30 3647 C 348.764 -0.606858 1.76562 0
M  V30 3648 C 349.115 -1.77114 0.844094 0
M  V30 3649 O 348.24 -2.16376 0.0318911 0
M  V30 3650 C 348.835 -1.10766 3.20182 0
M  V30 3651 C 347.394 -1.60344 3.40539 0
M  V30 3652 C 346.541 -0.529311 2.72201 0
M  V30 3653 H 349.492 0.169393 1.57793 0
M  V30 3654 H 349.513 -1.97602 3.25167 0
M  V30 3655 H 349.025 -0.26006 3.87228 0
M  V30 3656 H 347.126 -2.47379 2.78629 0
M  V30 3657 H 347.239 -1.67006 4.4905 0
M  V30 3658 H 345.603 -0.977893 2.35179 0
M  V30 3659 H 346.386 0.308352 3.41912 0
M  V30 3660 N 348.832 -1.54138 -0.328536 0
M  V30 3661 C 350.057 -1.76378 -1.09112 0
M  V30 3662 C 350.482 -0.508596 -1.81094 0
M  V30 3663 O 349.84 0.539598 -1.73084 0
M  V30 3664 C 349.888 -2.95358 -2.06872 0
M  V30 3665 O 348.992 -2.66556 -3.14677 0
M  V30 3666 H 348.333 -0.584614 -0.314838 0
M  V30 3667 H 350.863 -2.01146 -0.374348 0
M  V30 3668 H 350.873 -3.22566 -2.4983 0
M  V30 3669 H 349.548 -3.86385 -1.5388 0
M  V30 3670 H 348.125 -2.50282 -2.7643 0
M  V30 3671 N 350.31 0.590341 -1.46126 0
M  V30 3672 C 351.22 1.72793 -1.58681 0
M  V30 3673 C 352.236 1.67516 -0.470566 0
M  V30 3674 O 353.412 1.87562 -0.733642 0
M  V30 3675 C 350.477 3.09287 -1.5666 0
M  V30 3676 C 349.538 3.25886 -2.79458 0
M  V30 3677 C 348.771 4.55869 -2.77524 0
M  V30 3678 O 348.994 5.3928 -1.85832 0
M  V30 3679 O 347.928 4.75552 -3.68964 0
M  V30 3680 H 351.754 1.65149 -2.54872 0
M  V30 3681 H 349.339 0.756486 -1.28832 0
M  V30 3682 H 351.221 3.90577 -1.58202 0
M  V30 3683 H 349.896 3.17385 -0.636271 0
M  V30 3684 H 348.803 2.44119 -2.83472 0
M  V30 3685 H 350.136 3.22675 -3.71674 0
M  V30 3686 N 351.788 1.33704 0.83433 0
M  V30 3687 C 352.736 1.24323 1.96587 0
M  V30 3688 C 353.73 0.143659 1.6879 0
M  V30 3689 O 354.936 0.30791 1.77347 0
M  V30 3690 H 351.311 0.385925 0.645419 0
M  V30 3691 H 353.282 2.19978 2.01624 0
M  V30 3692 C 352.031 1.00394 3.32891 0
M  V30 3693 H 351.354 1.84231 3.54822 0
M  V30 3694 H 352.794 0.97862 4.12552 0
M  V30 3695 C 351.253 -0.293047 3.35623 0
M  V30 3696 O 351.783 -1.29823 3.80143 0
M  V30 3697 N 349.989 -0.322174 2.88809 0
M  V30 3698 H 349.536 0.496379 2.52772 0
M  V30 3699 H 349.494 -1.18977 2.91019 0
M  V30 3700 N 353.266 -1.05314 1.17247 0
M  V30 3701 C 354.514 -1.77941 0.958194 0
M  V30 3702 C 354.835 -1.88089 -0.514556 0
M  V30 3703 O 354.105 -1.39676 -1.37359 0
M  V30 3704 H 352.685 -0.659116 0.351533 0
M  V30 3705 H 355.347 -1.27166 1.47699 0
M  V30 3706 H 354.443 -2.79663 1.38546 0
M  V30 3707 N 354.744 -0.972509 -1.24016 0
M  V30 3708 C 355.972 -0.654803 -1.96265 0
M  V30 3709 C 356.387 0.776708 -1.72083 0
M  V30 3710 O 355.744 1.52171 -1.00748 0
M  V30 3711 C 355.795 -0.92592 -3.49441 0
M  V30 3712 O 355.516 -2.30116 -3.72798 0
M  V30 3713 C 357.017 -0.623068 -4.38899 0
M  V30 3714 H 354.237 -0.243907 -0.6251 0
M  V30 3715 H 356.781 -1.30175 -1.57717 0
M  V30 3716 H 354.936 -0.325108 -3.86033 0
M  V30 3717 H 355.35 -2.38483 -4.67147 0
M  V30 3718 H 356.824 -0.863189 -5.45209 0
M  V30 3719 H 357.301 0.442754 -4.36963 0
M  V30 3720 H 357.907 -1.204 -4.07902 0
M  V30 3721 N 356.222 1.38976 -0.743202 0
M  V30 3722 C 357.447 2.05161 -0.303936 0
M  V30 3723 C 357.872 1.55677 1.05576 0
M  V30 3724 O 357.23 0.704131 1.67068 0
M  V30 3725 C 357.278 3.59138 -0.324373 0
M  V30 3726 O 356.382 4.06668 0.685204 0
M  V30 3727 H 355.723 0.649815 -0.136518 0
M  V30 3728 H 358.253 1.77852 -1.01142 0
M  V30 3729 H 358.263 4.07639 -0.171618 0
M  V30 3730 H 356.938 3.94515 -1.31647 0
M  V30 3731 H 355.515 3.69561 0.497913 0
M  V30 3732 N 357.7 0.491464 1.49741 0
M  V30 3733 C 358.949 -0.0582189 2.01616 0
M  V30 3734 C 359.262 -1.38927 1.3769 0
M  V30 3735 O 360.468 -2.02509 1.80838 0
M  V30 3736 C 358.924 -0.154235 3.59569 0
M  V30 3737 C 358.532 1.1696 4.32463 0
M  V30 3738 C 360.276 -0.65479 4.1942 0
M  V30 3739 C 358.183 1.03627 5.8225 0
M  V30 3740 H 357.113 -0.0255317 0.753568 0
M  V30 3741 H 359.764 0.629445 1.72367 0
M  V30 3742 H 358.146 -0.906138 3.85493 0
M  V30 3743 H 359.32 1.93405 4.18248 0
M  V30 3744 H 357.635 1.60285 3.84315 0
M  V30 3745 H 360.232 -0.771903 5.29099 0
M  V30 3746 H 360.575 -1.65127 3.8215 0
M  V30 3747 H 361.108 0.040304 3.9778 0
M  V30 3748 H 357.847 2.00672 6.24028 0
M  V30 3749 H 357.367 0.312546 5.98985 0
M  V30 3750 H 359.046 0.711114 6.4308 0
M  V30 3751 N 359.178 -1.55987 0.224894 0
M  V30 3752 C 360.408 -2.02489 -0.41007 0
M  V30 3753 C 360.816 -1.10391 -1.53657 0
M  V30 3754 O 360.159 -0.106458 -1.83391 0
M  V30 3755 C 360.221 -3.45319 -0.999757 0
M  V30 3756 C 359.885 -4.56999 -0.00827976 0
M  V30 3757 C 360.882 -5.13812 0.793314 0
M  V30 3758 C 358.567 -5.02176 0.111442 0
M  V30 3759 C 360.561 -6.14276 1.7013 0
M  V30 3760 C 358.248 -6.02477 1.02296 0
M  V30 3761 C 359.246 -6.58403 1.81643 0
M  V30 3762 O 358.934 -7.56751 2.71262 0
M  V30 3763 H 358.666 -0.667915 -0.104235 0
M  V30 3764 H 361.22 -2.0257 0.339782 0
M  V30 3765 H 359.45 -3.42318 -1.79876 0
M  V30 3766 H 361.139 -3.7545 -1.54248 0
M  V30 3767 H 361.905 -4.79756 0.711288 0
M  V30 3768 H 357.784 -4.58323 -0.49605 0
M  V30 3769 H 361.328 -6.57854 2.32107 0
M  V30 3770 H 357.225 -6.35954 1.10599 0
M  V30 3771 H 357.993 -7.74286 2.65375 0
M  V30 3772 N 360.656 0.0484629 -1.57525 0
M  V30 3773 C 361.904 0.741657 -1.88 0
M  V30 3774 C 362.225 1.76918 -0.820054 0
M  V30 3775 O 361.495 1.95335 0.148661 0
M  V30 3776 H 360.075 0.276908 -0.69378 0
M  V30 3777 H 362.737 0.019013 -1.94891 0
M  V30 3778 H 361.833 1.24336 -2.86264 0
M  V30 3779 N 362.134 1.5431 0.320358 0
M  V30 3780 C 363.097 1.83195 1.3774 0
M  V30 3781 C 364.097 0.703906 1.44575 0
M  V30 3782 O 365.287 0.972214 1.44546 0
M  V30 3783 C 362.419 1.99487 2.76438 0
M  V30 3784 H 363.612 2.77642 1.1338 0
M  V30 3785 H 361.165 1.46076 0.556012 0
M  V30 3786 H 361.9 1.07262 3.06048 0
M  V30 3787 H 361.685 2.81575 2.7287 0
M  V30 3788 H 363.175 2.23271 3.52902 0
M  V30 3789 N 363.613 -0.582584 1.46437 0
M  V30 3790 C 364.861 -1.33814 1.51453 0
M  V30 3791 C 365.182 -1.94277 0.167792 0
M  V30 3792 O 364.452 -1.78566 -0.805677 0
M  V30 3793 H 363.032 -0.496838 0.557818 0
M  V30 3794 H 365.694 -0.682281 1.82568 0
M  V30 3795 H 364.79 -2.14479 2.26728 0
M  V30 3796 N 365.091 -1.34144 -0.827227 0
M  V30 3797 C 366.339 -1.26009 -1.58007 0
M  V30 3798 C 366.66 0.170971 -1.94249 0
M  V30 3799 O 365.93 1.10256 -1.61927 0
M  V30 3800 H 364.51 -0.463414 -0.585881 0
M  V30 3801 H 367.172 -1.68005 -0.987951 0
M  V30 3802 H 366.268 -1.86187 -2.50481 0
M  V30 3803 N 366.569 1.04691 -1.17803 0
M  V30 3804 C 367.816 1.77782 -0.969532 0
M  V30 3805 C 368.144 1.87926 0.501401 0
M  V30 3806 O 367.399 1.37918 1.38842 0
M  V30 3807 C 367.698 3.21467 -1.56186 0
M  V30 3808 C 367.364 3.3137 -3.05786 0
M  V30 3809 C 366.026 3.3378 -3.46619 0
M  V30 3810 C 368.378 3.31976 -4.01797 0
M  V30 3811 C 365.706 3.34431 -4.82051 0
M  V30 3812 C 368.058 3.34167 -5.37136 0
M  V30 3813 C 366.722 3.34866 -5.77426 0
M  V30 3814 H 365.992 0.650549 -0.354777 0
M  V30 3815 H 368.639 1.23006 -1.46772 0
M  V30 3816 H 366.944 3.79203 -0.985515 0
M  V30 3817 H 368.641 3.76652 -1.37602 0
M  V30 3818 H 365.231 3.3021 -2.73238 0
M  V30 3819 H 369.415 3.29311 -3.71306 0
M  V30 3820 H 364.671 3.33285 -5.12573 0
M  V30 3821 H 368.845 3.33585 -6.11305 0
M  V30 3822 H 366.472 3.35124 -6.82346 0
M  V30 3823 N 368.047 0.979072 1.23499 0
M  V30 3824 C 368.98 0.463027 2.23453 0
M  V30 3825 C 369.958 -0.469128 1.55685 0
M  V30 3826 O 371.142 -0.397882 1.84253 0
M  V30 3827 C 368.269 -0.330308 3.37086 0
M  V30 3828 C 367.315 0.545795 4.22993 0
M  V30 3829 S 368.148 1.99285 4.97037 0
M  V30 3830 C 369.304 1.20862 6.1412 0
M  V30 3831 H 369.537 1.31005 2.6688 0
M  V30 3832 H 367.07 0.784965 1.32957 0
M  V30 3833 H 369.028 -0.782027 4.02982 0
M  V30 3834 H 367.689 -1.15244 2.92194 0
M  V30 3835 H 366.882 -0.0638928 5.03959 0
M  V30 3836 H 366.484 0.933705 3.62157 0
M  V30 3837 H 368.776 0.469284 6.75873 0
M  V30 3838 H 369.719 1.99307 6.79472 0
M  V30 3839 H 370.127 0.727992 5.59786 0
M  V30 3840 N 369.525 -1.3858 0.750561 0
M  V30 3841 C 370.936 -1.82927 0.373438 0
M  V30 3842 C 371.287 -1.62634 -1.09748 0
M  V30 3843 O 370.412 -1.12588 -1.84805 0
M  V30 3844 C 371.007 -3.32088 0.671029 0
M  V30 3845 C 369.566 -3.74795 0.34722 0
M  V30 3846 C 368.713 -2.61391 0.92575 0
M  V30 3847 H 371.664 -1.27351 0.946958 0
M  V30 3848 H 371.685 -3.80465 -0.0518269 0
M  V30 3849 H 371.197 -3.46826 1.74164 0
M  V30 3850 H 369.298 -3.65638 -0.716933 0
M  V30 3851 H 369.411 -4.71667 0.840656 0
M  V30 3852 H 367.775 -2.52265 0.351327 0
M  V30 3853 H 368.558 -2.78929 2.00133 0
M  V30 3854 N 371.003 -0.499398 -1.49478 0
M  V30 3855 C 372.233 0.0424839 -2.06556 0
M  V30 3856 C 372.641 1.31514 -1.36018 0
M  V30 3857 O 371.984 1.78555 -0.431718 0
M  V30 3858 C 372.046 0.368074 -3.57611 0
M  V30 3859 C 371.71 -0.806631 -4.49825 0
M  V30 3860 C 372.707 -1.69667 -4.91436 0
M  V30 3861 C 370.392 -1.00498 -4.92144 0
M  V30 3862 C 372.386 -2.76923 -5.74101 0
M  V30 3863 C 370.073 -2.08072 -5.74586 0
M  V30 3864 C 371.071 -2.96119 -6.15469 0
M  V30 3865 O 370.759 -4.01836 -6.96264 0
M  V30 3866 H 370.491 -0.0165165 -0.675798 0
M  V30 3867 H 373.045 -0.695497 -1.93267 0
M  V30 3868 H 371.275 1.15963 -3.68903 0
M  V30 3869 H 372.964 0.848381 -3.96935 0
M  V30 3870 H 373.73 -1.55524 -4.59388 0
M  V30 3871 H 369.609 -0.329036 -4.59824 0
M  V30 3872 H 373.153 -3.45676 -6.05932 0
M  V30 3873 H 369.05 -2.22211 -6.06047 0
M  V30 3874 H 369.818 -3.9917 -7.14567 0
M  V30 3875 N 372.481 1.55866 -0.233164 0
M  V30 3876 C 373.729 1.9821 0.394593 0
M  V30 3877 C 374.05 1.12234 1.59463 0
M  V30 3878 O 373.32 0.201981 1.94856 0
M  V30 3879 H 371.9 0.732034 0.148778 0
M  V30 3880 H 374.562 1.92107 -0.32876 0
M  V30 3881 H 373.658 3.03845 0.713063 0
M  V30 3882 N 373.959 -0.0401083 1.57549 0
M  V30 3883 C 375.206 -0.733125 1.88763 0
M  V30 3884 C 375.534 -1.75946 0.829058 0
M  V30 3885 O 374.789 -1.94949 -0.171323 0
M  V30 3886 C 375.088 -1.44902 3.26708 0
M  V30 3887 C 374.754 -0.559707 4.47413 0
M  V30 3888 C 373.416 -0.314731 4.8017 0
M  V30 3889 C 375.768 0.0549743 5.21171 0
M  V30 3890 C 373.096 0.553886 5.8408 0
M  V30 3891 C 375.448 0.911229 6.26003 0
M  V30 3892 C 374.112 1.16577 6.57241 0
M  V30 3893 H 373.382 -0.268269 0.690733 0
M  V30 3894 H 376.029 0.00679408 1.91499 0
M  V30 3895 H 374.334 -2.26197 3.1991 0
M  V30 3896 H 376.031 -1.99058 3.48105 0
M  V30 3897 H 372.621 -0.760793 4.21794 0
M  V30 3898 H 376.805 -0.121344 4.96152 0
M  V30 3899 H 372.061 0.759518 6.06664 0
M  V30 3900 H 376.235 1.3941 6.82303 0
M  V30 3901 H 373.862 1.84058 7.37582 0
M  V30 3902 N 375.437 -1.54477 -0.31217 0
M  V30 3903 C 376.665 -1.77205 -1.068 0
M  V30 3904 C 377.08 -0.526114 -1.81321 0
M  V30 3905 O 376.437 0.503647 -1.75413 0
M  V30 3906 C 376.488 -2.97253 -2.05725 0
M  V30 3907 O 376.209 -4.1703 -1.34228 0
M  V30 3908 C 377.71 -3.32281 -2.93435 0
M  V30 3909 H 374.93 -0.591287 -0.317208 0
M  V30 3910 H 377.474 -2.01398 -0.354834 0
M  V30 3911 H 375.629 -2.753 -2.72559 0
M  V30 3912 H 376.043 -4.84636 -2.00571 0
M  V30 3913 H 377.517 -4.19551 -3.58721 0
M  V30 3914 H 377.994 -2.49945 -3.61143 0
M  V30 3915 H 378.6 -3.56353 -2.32147 0
M  V30 3916 N 376.915 0.57481 -1.46744 0
M  V30 3917 C 378.163 1.33009 -1.52161 0
M  V30 3918 C 378.484 1.94185 -0.178092 0
M  V30 3919 O 377.754 1.7899 0.796196 0
M  V30 3920 H 376.334 0.493873 -0.560445 0
M  V30 3921 H 378.996 0.672589 -1.82927 0
M  V30 3922 H 378.092 2.13273 -2.27862 0
M  V30 3923 N 378.394 1.34581 0.820102 0
M  V30 3924 C 379.622 1.3018 1.60813 0
M  V30 3925 C 380.037 -0.123551 1.88395 0
M  V30 3926 O 379.394 -1.07148 1.47735 0
M  V30 3927 C 379.445 2.09312 2.94739 0
M  V30 3928 O 379.166 3.46288 2.68358 0
M  V30 3929 C 380.667 2.1234 3.89136 0
M  V30 3930 H 377.887 0.447726 0.499782 0
M  V30 3931 H 380.431 1.77237 1.02017 0
M  V30 3932 H 378.586 1.65889 3.50085 0
M  V30 3933 H 379 3.87227 3.53774 0
M  V30 3934 H 380.474 2.72126 4.80262 0
M  V30 3935 H 380.951 1.11854 4.24718 0
M  V30 3936 H 381.557 2.55864 3.39726 0
M  V30 3937 N 379.872 -1.04064 1.18357 0
M  V30 3938 C 380.802 -2.14001 0.934113 0
M  V30 3939 C 381.783 -1.69616 -0.128186 0
M  V30 3940 O 382.968 -1.94185 0.0244093 0
M  V30 3941 C 380.098 -3.44253 0.459066 0
M  V30 3942 C 379.052 -4.02261 1.46185 0
M  V30 3943 C 378.378 -5.27992 0.844322 0
M  V30 3944 C 379.678 -4.38432 2.83856 0
M  V30 3945 H 381.372 -2.35127 1.85352 0
M  V30 3946 H 378.918 -1.12998 0.892604 0
M  V30 3947 H 380.871 -4.20522 0.271907 0
M  V30 3948 H 379.595 -3.22813 -0.495912 0
M  V30 3949 H 378.254 -3.28074 1.63595 0
M  V30 3950 H 377.902 -5.02862 -0.117845 0
M  V30 3951 H 377.602 -5.67765 1.51384 0
M  V30 3952 H 379.126 -6.06938 0.667693 0
M  V30 3953 H 380.54 -5.05688 2.70098 0
M  V30 3954 H 378.937 -4.89254 3.47491 0
M  V30 3955 H 380.007 -3.4826 3.37406 0
M  V30 3956 N 381.35 -0.985608 -1.22978 0
M  V30 3957 C 382.313 -0.535071 -2.22867 0
M  V30 3958 C 383.313 0.378123 -1.56291 0
M  V30 3959 O 384.503 0.171092 -1.73358 0
M  V30 3960 C 381.635 0.222702 -3.40172 0
M  V30 3961 H 382.828 -1.41835 -2.6424 0
M  V30 3962 H 380.381 -0.772042 -1.35901 0
M  V30 3963 H 381.116 1.12229 -3.04262 0
M  V30 3964 H 380.901 -0.43288 -3.89703 0
M  V30 3965 H 382.391 0.526335 -4.1427 0
M  V30 3966 N 382.828 1.3818 -0.7579 0
M  V30 3967 C 384.076 1.99624 -0.315361 0
M  V30 3968 C 384.397 1.60464 1.10799 0
M  V30 3969 O 383.667 0.863507 1.75842 0
M  V30 3970 H 382.247 0.73831 -0.113611 0
M  V30 3971 H 384.909 1.68878 -0.972952 0
M  V30 3972 H 384.005 3.09754 -0.381931 0
M  V30 3973 N 384.306 0.507319 1.49211 0
M  V30 3974 C 385.269 -0.256763 2.27757 0
M  V30 3975 C 386.269 -0.888287 1.34038 0
M  V30 3976 O 387.459 -0.751841 1.5714 0
M  V30 3977 C 384.591 -1.36905 3.12202 0
M  V30 3978 H 385.784 0.432557 2.96764 0
M  V30 3979 H 383.337 0.262488 1.5408 0
M  V30 3980 H 384.072 -2.09233 2.47775 0
M  V30 3981 H 383.857 -0.921599 3.81115 0
M  V30 3982 H 385.347 -1.9071 3.7151 0
M  V30 3983 N 385.784 -1.5574 0.241426 0
M  V30 3984 C 386.747 -2.19877 -0.647063 0
M  V30 3985 C 387.747 -1.16642 -1.10686 0
M  V30 3986 O 388.937 -1.41757 -1.01245 0
M  V30 3987 C 386.069 -2.83797 -1.88871 0
M  V30 3988 H 387.262 -2.99772 -0.087574 0
M  V30 3989 H 384.815 -1.56298 -0.00813574 0
M  V30 3990 H 385.55 -2.07824 -2.48957 0
M  V30 3991 H 385.335 -3.59414 -1.56728 0
M  V30 3992 H 386.825 -3.32898 -2.52129 0
M  V30 3993 N 387.262 0.0317525 -1.57568 0
M  V30 3994 C 388.49 0.734949 -1.93407 0
M  V30 3995 C 388.905 1.69036 -0.84096 0
M  V30 3996 O 388.262 1.81582 0.182836 0
M  V30 3997 C 388.313 1.49432 -3.29169 0
M  V30 3998 O 388.034 0.577261 -4.3428 0
M  V30 3999 C 389.535 2.29492 -3.79273 0
M  V30 4000 H 386.755 0.206706 -0.638368 0
M  V30 4001 H 389.299 -0.00992046 -2.04498 0
M  V30 4002 H 387.454 2.1911 -3.19483 0
M  V30 4003 H 387.868 1.10952 -5.1263 0
M  V30 4004 H 389.342 2.78172 -4.76785 0
M  V30 4005 H 389.819 3.10794 -3.10328 0
M  V30 4006 H 390.425 1.64894 -3.92033 0
M  V30 4007 N 388.74 1.54641 0.303973 0
M  V30 4008 C 389.98 1.75516 1.04755 0
M  V30 4009 C 390.344 0.528211 1.84591 0
M  V30 4010 O 391.545 0.614645 2.61678 0
M  V30 4011 C 389.816 3.00685 1.93193 0
M  V30 4012 S 391.375 3.42549 2.74237 0
M  V30 4013 H 388.193 0.616987 0.353339 0
M  V30 4014 H 390.795 1.92842 0.321292 0
M  V30 4015 H 389.499 3.8811 1.33411 0
M  V30 4016 H 389.03 2.85937 2.70191 0
M  V30 4017 H 391.045 2.99386 3.95705 0
M  V30 4018 N 390.218 -0.567019 1.47046 0
M  V30 4019 C 391.465 -1.32462 1.53167 0
M  V30 4020 C 391.793 -1.93571 0.189841 0
M  V30 4021 O 391.048 -1.77865 -0.816243 0
M  V30 4022 C 391.347 -2.4623 2.59047 0
M  V30 4023 C 391.013 -2.03014 4.02612 0
M  V30 4024 C 389.675 -1.90944 4.41694 0
M  V30 4025 C 392.027 -1.69895 4.92732 0
M  V30 4026 C 389.355 -1.44035 5.68745 0
M  V30 4027 C 391.707 -1.2446 6.20236 0
M  V30 4028 C 390.371 -1.10979 6.5821 0
M  V30 4029 H 389.641 -0.484713 0.560477 0
M  V30 4030 H 392.288 -0.636888 1.80599 0
M  V30 4031 H 390.593 -3.20517 2.25335 0
M  V30 4032 H 392.29 -3.04427 2.61008 0
M  V30 4033 H 388.88 -2.13348 3.71726 0
M  V30 4034 H 393.064 -1.78098 4.63244 0
M  V30 4035 H 388.32 -1.32254 5.96925 0
M  V30 4036 H 392.494 -0.978924 6.89485 0
M  V30 4037 H 390.121 -0.744078 7.5655 0
M  V30 4038 N 391.696 -1.35014 -0.812953 0
M  V30 4039 C 392.926 -1.30841 -1.59888 0
M  V30 4040 C 393.334 0.117576 -1.88834 0
M  V30 4041 O 392.677 1.07807 -1.48739 0
M  V30 4042 C 392.739 -2.0412 -2.95931 0
M  V30 4043 C 392.403 -3.53336 -2.89832 0
M  V30 4044 C 393.4 -4.48052 -2.63714 0
M  V30 4045 C 391.085 -3.95894 -3.0915 0
M  V30 4046 C 393.079 -5.833 -2.56982 0
M  V30 4047 C 390.766 -5.31239 -3.0204 0
M  V30 4048 C 391.764 -6.24754 -2.75991 0
M  V30 4049 O 391.452 -7.57617 -2.68833 0
M  V30 4050 H 391.184 -0.451215 -0.50337 0
M  V30 4051 H 393.738 -1.78354 -1.01877 0
M  V30 4052 H 391.968 -1.51235 -3.559 0
M  V30 4053 H 393.657 -1.93107 -3.57022 0
M  V30 4054 H 394.423 -4.16492 -2.48515 0
M  V30 4055 H 390.302 -3.23495 -3.28438 0
M  V30 4056 H 393.846 -6.56263 -2.36569 0
M  V30 4057 H 389.743 -5.62415 -3.16796 0
M  V30 4058 H 390.511 -7.67469 -2.84487 0
M  V30 4059 N 393.175 1.03435 -1.18907 0
M  V30 4060 C 394.138 2.09756 -0.923844 0
M  V30 4061 C 395.138 1.60528 0.093416 0
M  V30 4062 O 396.328 1.73631 -0.140727 0
M  V30 4063 C 393.46 3.38692 -0.387354 0
M  V30 4064 H 394.653 2.34719 -1.86674 0
M  V30 4065 H 392.206 1.19959 -1.00197 0
M  V30 4066 H 392.941 3.19396 0.561845 0
M  V30 4067 H 392.726 3.75742 -1.12074 0
M  V30 4068 H 394.216 4.17016 -0.220694 0
M  V30 4069 N 394.653 0.992116 1.22453 0
M  V30 4070 C 395.9 0.667534 1.91181 0
M  V30 4071 C 396.228 -0.800317 1.77271 0
M  V30 4072 O 395.483 -1.59421 1.13505 0
M  V30 4073 C 395.782 1.01832 3.42586 0
M  V30 4074 C 395.448 2.47831 3.76684 0
M  V30 4075 C 394.11 2.87729 3.85701 0
M  V30 4076 C 396.462 3.42466 3.92895 0
M  V30 4077 C 393.79 4.21252 4.08367 0
M  V30 4078 C 396.142 4.75648 4.17064 0
M  V30 4079 C 394.806 5.15288 4.24305 0
M  V30 4080 H 394.076 0.244268 0.699581 0
M  V30 4081 H 396.723 1.24816 1.45235 0
M  V30 4082 H 395.028 0.355769 3.90181 0
M  V30 4083 H 396.725 0.745228 3.94014 0
M  V30 4084 H 393.315 2.15905 3.70247 0
M  V30 4085 H 397.499 3.12814 3.85307 0
M  V30 4086 H 392.755 4.51554 4.122 0
M  V30 4087 H 396.929 5.48924 4.2855 0
M  V30 4088 H 394.556 6.18769 4.41621 0
M  V30 4089 N 396.131 -1.37776 0.765217 0
M  V30 4090 C 397.377 -2.00145 0.327072 0
M  V30 4091 C 397.71 -1.60607 -1.09175 0
M  V30 4092 O 396.985 -0.849127 -1.74986 0
M  V30 4093 C 397.268 -3.57109 0.46319 0
M  V30 4094 C 397.121 -4.06576 1.92395 0
M  V30 4095 C 398.44 -4.39888 -0.136473 0
M  V30 4096 H 395.559 -0.727113 0.120316 0
M  V30 4097 H 398.201 -1.63549 0.967039 0
M  V30 4098 H 396.351 -3.88414 -0.0816358 0
M  V30 4099 H 398.023 -3.85864 2.52798 0
M  V30 4100 H 396.266 -3.59011 2.43503 0
M  V30 4101 H 396.937 -5.15639 1.97028 0
M  V30 4102 H 399.413 -4.14803 0.328317 0
M  V30 4103 H 398.289 -5.48899 -0.0110582 0
M  V30 4104 H 398.55 -4.24758 -1.22608 0
M  V30 4105 N 397.609 -0.515225 -1.4894 0
M  V30 4106 C 398.857 0.0241671 -2.02086 0
M  V30 4107 C 399.178 1.3616 -1.3959 0
M  V30 4108 O 398.448 1.87841 -0.556121 0
M  V30 4109 H 397.028 0.0119203 -0.746905 0
M  V30 4110 H 399.69 -0.675702 -1.82812 0
M  V30 4111 H 398.786 0.143385 -3.1177 0
M  V30 4112 N 399.087 1.5561 -0.249682 0
M  V30 4113 C 400.334 1.99011 0.374287 0
M  V30 4114 C 400.662 1.13785 1.57744 0
M  V30 4115 O 399.917 0.189326 1.94782 0
M  V30 4116 C 400.216 3.4775 0.824887 0
M  V30 4117 C 399.882 4.50086 -0.270819 0
M  V30 4118 C 398.544 4.77791 -0.571746 0
M  V30 4119 C 400.896 5.11312 -1.01041 0
M  V30 4120 C 398.224 5.63997 -1.61629 0
M  V30 4121 C 400.576 5.98651 -2.0445 0
M  V30 4122 C 399.24 6.24688 -2.35204 0
M  V30 4123 H 398.51 0.728233 0.136961 0
M  V30 4124 H 401.157 1.88122 -0.358087 0
M  V30 4125 H 399.462 3.55985 1.63651 0
M  V30 4126 H 401.159 3.78721 1.31799 0
M  V30 4127 H 397.749 4.28592 -0.026136 0
M  V30 4128 H 401.933 4.89953 -0.791177 0
M  V30 4129 H 397.189 5.82425 -1.85988 0
M  V30 4130 H 401.363 6.45135 -2.62248 0
M  V30 4131 H 398.99 6.91281 -3.16282 0
M  V30 4132 N 400.565 -0.0233959 1.57583 0
M  V30 4133 C 401.842 -0.748794 1.807 0
M  V30 4134 C 402.222 -1.9327 0.849106 0
M  V30 4135 O 401.57 -2.28247 -0.107468 0
M  V30 4136 C 401.78 -1.17651 3.28571 0
M  V30 4137 C 403.128 -1.59008 3.93702 0
M  V30 4138 O 404.152 -1.27094 3.32755 0
M  V30 4139 O 403.011 -2.18264 5.01022 0
M  V30 4140 H 400.105 -0.362578 0.743281 0
M  V30 4141 H 402.651 0.000261958 1.697 0
M  V30 4142 H 401.423 -0.331603 3.89892 0
M  V30 4143 H 401.046 -1.98541 3.44481 0
M  V30 4144 N 402.043 -1.548 -0.295768 0
M  V30 4145 C 403.283 -1.76069 -1.03823 0
M  V30 4146 C 403.647 -0.537992 -1.84309 0
M  V30 4147 O 404.848 -0.628514 -2.61349 0
M  V30 4148 C 403.119 -3.01705 -1.91596 0
M  V30 4149 S 404.678 -3.43998 -2.72416 0
M  V30 4150 H 401.496 -0.618852 -0.350062 0
M  V30 4151 H 404.098 -1.93009 -0.31106 0
M  V30 4152 H 402.802 -3.88812 -1.31351 0
M  V30 4153 H 402.333 -2.87366 -2.68671 0
M  V30 4154 H 404.348 -3.0148 -3.94112 0
M  V30 4155 N 403.521 0.559213 -1.47345 0
M  V30 4156 C 404.77 1.31281 -1.53128 0
M  V30 4157 C 405.083 1.94602 -0.197344 0
M  V30 4158 O 406.289 2.71173 -0.133154 0
M  V30 4159 C 404.745 2.38051 -2.69925 0
M  V30 4160 C 404.353 1.8093 -4.0984 0
M  V30 4161 C 406.097 3.14604 -2.84999 0
M  V30 4162 C 404.004 2.85468 -5.1794 0
M  V30 4163 H 402.934 0.493614 -0.569966 0
M  V30 4164 H 405.585 0.594155 -1.73615 0
M  V30 4165 H 403.967 3.12822 -2.42814 0
M  V30 4166 H 405.141 1.12544 -4.46845 0
M  V30 4167 H 403.456 1.16967 -3.99634 0
M  V30 4168 H 406.053 3.92666 -3.62929 0
M  V30 4169 H 406.396 3.68665 -1.93369 0
M  V30 4170 H 406.929 2.46945 -3.1187 0
M  V30 4171 H 403.668 2.36264 -6.1144 0
M  V30 4172 H 403.188 3.52269 -4.85455 0
M  V30 4173 H 404.867 3.48996 -5.44803 0
M  V30 4174 N 404.999 1.35443 0.805782 0
M  V30 4175 C 405.962 1.28301 1.89925 0
M  V30 4176 C 406.962 0.194285 1.59622 0
M  V30 4177 O 408.152 0.448036 1.6834 0
M  V30 4178 C 405.284 0.984997 3.2636 0
M  V30 4179 H 406.477 2.2553 1.97677 0
M  V30 4180 H 404.03 1.19979 1.00173 0
M  V30 4181 H 404.765 0.016603 3.24296 0
M  V30 4182 H 404.55 1.77269 3.4974 0
M  V30 4183 H 406.04 0.960651 4.064 0
M  V30 4184 N 406.477 -1.02803 1.19454 0
M  V30 4185 C 407.705 -1.79841 1.02297 0
M  V30 4186 C 408.12 -1.83879 -0.428259 0
M  V30 4187 O 407.477 -1.28345 -1.29745 0
M  V30 4188 C 407.528 -3.24852 1.58598 0
M  V30 4189 O 407.249 -3.21097 2.98041 0
M  V30 4190 C 408.75 -4.18485 1.46236 0
M  V30 4191 H 405.97 -0.565936 0.360496 0
M  V30 4192 H 408.514 -1.2948 1.58288 0
M  V30 4193 H 406.669 -3.72401 1.06753 0
M  V30 4194 H 407.083 -4.12033 3.24545 0
M  V30 4195 H 408.557 -5.18121 1.90407 0
M  V30 4196 H 409.034 -4.37254 0.41301 0
M  V30 4197 H 409.64 -3.76811 1.97215 0
M  V30 4198 N 407.956 -0.998596 -1.21925 0
M  V30 4199 C 409.184 -0.696286 -1.94832 0
M  V30 4200 C 409.599 0.740032 -1.73692 0
M  V30 4201 O 408.956 1.5 -1.03953 0
M  V30 4202 C 409.007 -0.999833 -3.47398 0
M  V30 4203 O 408.728 -2.37972 -3.67833 0
M  V30 4204 C 410.229 -0.716025 -4.37479 0
M  V30 4205 H 407.449 -0.257111 -0.619786 0
M  V30 4206 H 409.993 -1.33491 -1.54921 0
M  V30 4207 H 408.148 -0.406918 -3.85257 0
M  V30 4208 H 408.562 -2.48338 -4.61983 0
M  V30 4209 H 410.036 -0.978642 -5.43256 0
M  V30 4210 H 410.513 0.349968 -4.37803 0
M  V30 4211 H 411.119 -1.29025 -4.05256 0
M  V30 4212 N 409.434 1.37368 -0.772513 0
M  V30 4213 C 410.682 1.99279 -0.336516 0
M  V30 4214 C 411.003 1.6163 1.09091 0
M  V30 4215 O 410.273 0.882109 1.74916 0
M  V30 4216 H 408.853 0.737063 -0.121435 0
M  V30 4217 H 411.515 1.67836 -0.990809 0
M  V30 4218 H 410.611 3.09332 -0.414763 0
M  V30 4219 N 410.912 0.523116 1.48665 0
M  V30 4220 C 411.822 -0.247406 2.33292 0
M  V30 4221 C 412.838 -0.945769 1.46052 0
M  V30 4222 O 414.014 -0.922253 1.79043 0
M  V30 4223 C 411.079 -1.28487 3.22012 0
M  V30 4224 C 410.14 -0.597592 4.2512 0
M  V30 4225 C 409.373 -1.58563 5.09601 0
M  V30 4226 O 409.596 -2.81763 4.95949 0
M  V30 4227 O 408.53 -1.12879 5.91221 0
M  V30 4228 H 412.356 0.445869 3.00409 0
M  V30 4229 H 409.941 0.284128 1.46673 0
M  V30 4230 H 411.823 -1.88459 3.7691 0
M  V30 4231 H 410.498 -1.96068 2.57564 0
M  V30 4232 H 409.405 0.0424407 3.74076 0
M  V30 4233 H 410.738 0.0361517 4.92187 0
M  V30 4234 N 412.39 -1.55475 0.257931 0
M  V30 4235 C 413.3 -2.2549 -0.647425 0
M  V30 4236 C 414.316 -1.2748 -1.18427 0
M  V30 4237 O 415.492 -1.6038 -1.2182 0
M  V30 4238 C 412.557 -2.94916 -1.82278 0
M  V30 4239 C 411.618 -4.08363 -1.32432 0
M  V30 4240 C 410.851 -4.74469 -2.44366 0
M  V30 4241 O 411.074 -4.39701 -3.63344 0
M  V30 4242 O 410.008 -5.62763 -2.13497 0
M  V30 4243 H 413.834 -3.03593 -0.0807707 0
M  V30 4244 H 411.419 -1.49377 0.0259962 0
M  V30 4245 H 413.301 -3.38606 -2.50846 0
M  V30 4246 H 411.976 -2.19744 -2.37685 0
M  V30 4247 H 410.883 -3.69166 -0.605605 0
M  V30 4248 H 412.216 -4.85385 -0.816211 0
M  V30 4249 N 413.868 0.0150385 -1.57593 0
M  V30 4250 C 415.114 0.704043 -1.90187 0
M  V30 4251 C 415.447 1.74249 -0.857366 0
M  V30 4252 O 414.722 1.94092 0.125843 0
M  V30 4253 C 415.005 1.36087 -3.33395 0
M  V30 4254 C 414.858 0.334981 -4.48551 0
M  V30 4255 C 416.177 2.29112 -3.7576 0
M  V30 4256 H 413.296 0.254475 -0.691673 0
M  V30 4257 H 415.938 -0.0331678 -1.89971 0
M  V30 4258 H 414.088 1.98922 -3.3371 0
M  V30 4259 H 415.76 -0.292534 -4.60372 0
M  V30 4260 H 414.003 -0.344325 -4.32431 0
M  V30 4261 H 414.674 0.833316 -5.45674 0
M  V30 4262 H 417.15 1.76308 -3.76902 0
M  V30 4263 H 416.026 2.72043 -4.76743 0
M  V30 4264 H 416.287 3.16385 -3.08793 0
M  V30 4265 N 415.346 1.54954 0.287554 0
M  V30 4266 C 416.762 1.46469 0.633964 0
M  V30 4267 C 416.962 0.666865 1.90145 0
M  V30 4268 O 416.018 0.179906 2.51858 0
M  V30 4269 C 417.331 2.90556 0.774454 0
M  V30 4270 C 418.879 3.00681 0.869462 0
M  V30 4271 C 419.354 4.45993 1.04184 0
M  V30 4272 N 420.845 4.4976 1.10772 0
M  V30 4273 C 421.58 5.59393 1.25964 0
M  V30 4274 N 421.076 6.78923 1.37968 0
M  V30 4275 N 422.869 5.47107 1.28959 0
M  V30 4276 H 415.02 2.05288 -0.545041 0
M  V30 4277 H 417.283 0.930305 -0.182308 0
M  V30 4278 H 416.989 3.51594 -0.086207 0
M  V30 4279 H 416.863 3.38743 1.6593 0
M  V30 4280 H 419.25 2.39749 1.7206 0
M  V30 4281 H 419.331 2.55769 -0.0396831 0
M  V30 4282 H 418.975 5.07524 0.195422 0
M  V30 4283 H 418.905 4.88548 1.96542 0
M  V30 4284 H 421.396 3.63651 1.02794 0
M  V30 4285 H 421.709 7.58231 1.49353 0
M  V30 4286 H 420.054 6.81763 1.34999 0
M  V30 4287 H 423.245 4.52668 1.19202 0
M  V30 4288 H 423.418 6.32595 1.40455 0
M  V30 4289 N 416.824 -0.551391 1.4764 0
M  V30 4290 C 417.772 -1.67896 1.60978 0
M  V30 4291 C 418.766 -1.62549 0.476877 0
M  V30 4292 O 419.972 -1.67664 0.654878 0
M  V30 4293 H 416.347 -0.555649 0.506713 0
M  V30 4294 H 418.318 -1.53784 2.55721 0
M  V30 4295 C 417.067 -3.06234 1.64669 0
M  V30 4296 H 416.39 -3.11033 2.51194 0
M  V30 4297 H 417.83 -3.84804 1.7805 0
M  V30 4298 C 416.289 -3.34737 0.381115 0
M  V30 4299 O 416.819 -3.98381 -0.515297 0
M  V30 4300 N 415.025 -2.8944 0.259354 0
M  V30 4301 H 414.572 -2.37827 0.98976 0
M  V30 4302 H 414.53 -3.08882 -0.586464 0
M  V30 4303 N 418.302 -1.35869 -0.798587 0
M  V30 4304 C 419.713 -1.26498 -1.37314 0
M  V30 4305 C 420.064 0.0991899 -1.95949 0
M  V30 4306 O 419.189 1.0004 -1.91888 0
M  V30 4307 C 419.784 -2.29054 -2.49639 0
M  V30 4308 C 418.343 -2.234 -3.02935 0
M  V30 4309 C 417.49 -2.14329 -1.75949 0
M  V30 4310 H 420.441 -1.46881 -0.600971 0
M  V30 4311 H 420.462 -1.92166 -3.28409 0
M  V30 4312 H 419.974 -3.2833 -2.06933 0
M  V30 4313 H 418.075 -1.27562 -3.50084 0
M  V30 4314 H 418.188 -3.15703 -3.60372 0
M  V30 4315 H 416.552 -1.60435 -1.9782 0
M  V30 4316 H 417.335 -3.15477 -1.35384 0
M  V30 4317 N 419.78 1.02168 -1.19998 0
M  V30 4318 C 420.712 2.10705 -0.901994 0
M  V30 4319 C 421.725 1.6244 0.108216 0
M  V30 4320 O 422.914 1.78082 -0.12214 0
M  V30 4321 C 420.014 3.37291 -0.329834 0
M  V30 4322 C 419.187 4.14714 -1.39035 0
M  V30 4323 C 418.246 5.19606 -0.830432 0
M  V30 4324 O 417.272 5.48809 -1.50989 0
M  V30 4325 N 418.474 5.79366 0.362696 0
M  V30 4326 H 421.239 2.36856 -1.83628 0
M  V30 4327 H 418.8 1.18518 -1.10296 0
M  V30 4328 H 420.792 4.04657 0.0587633 0
M  V30 4329 H 419.362 3.0843 0.508891 0
M  V30 4330 H 418.582 3.42392 -1.9535 0
M  V30 4331 H 419.87 4.63226 -2.10474 0
M  V30 4332 H 419.268 5.57968 0.932081 0
M  V30 4333 H 417.825 6.48106 0.69299 0
M  V30 4334 N 421.258 1.00505 1.21394 0
M  V30 4335 C 422.205 0.565496 2.23765 0
M  V30 4336 C 423.175 -0.408466 1.60999 0
M  V30 4337 O 424.36 -0.310503 1.88257 0
M  V30 4338 C 421.5 -0.101667 3.4495 0
M  V30 4339 C 420.613 0.915479 4.22188 0
M  V30 4340 C 419.748 0.220574 5.30742 0
M  V30 4341 C 418.787 1.22527 5.99711 0
M  V30 4342 N 417.924 0.557831 6.9988 0
M  V30 4343 H 422.764 1.44314 2.60725 0
M  V30 4344 H 420.301 0.722643 1.28126 0
M  V30 4345 H 422.259 -0.505504 4.14126 0
M  V30 4346 H 420.889 -0.94303 3.08718 0
M  V30 4347 H 419.941 1.43756 3.52191 0
M  V30 4348 H 421.253 1.68005 4.69655 0
M  V30 4349 H 420.407 -0.239368 6.06228 0
M  V30 4350 H 419.146 -0.576401 4.84282 0
M  V30 4351 H 418.151 1.69571 5.22997 0
M  V30 4352 H 419.376 2.02332 6.48258 0
M  V30 4353 H 417.322 -0.219486 6.55633 0
M  V30 4354 H 417.239 1.26065 7.45415 0
M  V30 4355 H 418.507 0.121095 7.79406 0
M  V30 4356 N 422.737 -1.36956 0.779787 0
M  V30 4357 C 423.7 -2.2851 0.177662 0
M  V30 4358 C 424.7 -1.48393 -0.619377 0
M  V30 4359 O 425.89 -1.68505 -0.441785 0
M  V30 4360 C 423.022 -3.32428 -0.755279 0
M  V30 4361 H 424.215 -2.83269 0.984823 0
M  V30 4362 H 421.768 -1.46358 0.548544 0
M  V30 4363 H 422.503 -2.82808 -1.58714 0
M  V30 4364 H 422.288 -3.91659 -0.185817 0
M  V30 4365 H 423.778 -4.00824 -1.17174 0
M  V30 4366 N 424.215 -0.530993 -1.48385 0
M  V30 4367 C 425.464 0.00474348 -2.01699 0
M  V30 4368 C 425.777 1.35227 -1.41325 0
M  V30 4369 O 426.983 1.97643 -1.86144 0
M  V30 4370 C 425.439 0.0588473 -3.59852 0
M  V30 4371 C 425.047 -1.28385 -4.2921 0
M  V30 4372 C 426.791 0.543358 -4.21008 0
M  V30 4373 C 424.698 -1.19028 -5.79298 0
M  V30 4374 H 423.628 0.00554317 -0.75398 0
M  V30 4375 H 426.279 -0.674924 -1.70637 0
M  V30 4376 H 424.661 0.803612 -3.8776 0
M  V30 4377 H 425.835 -2.04426 -4.12973 0
M  V30 4378 H 424.15 -1.70418 -3.7993 0
M  V30 4379 H 426.747 0.631351 -5.3096 0
M  V30 4380 H 427.09 1.54937 -3.86394 0
M  V30 4381 H 427.623 -0.145754 -3.97533 0
M  V30 4382 H 424.362 -2.17147 -6.18488 0
M  V30 4383 H 423.882 -0.471246 -5.97946 0
M  V30 4384 H 425.561 -0.881365 -6.40969 0
M  V30 4385 N 425.693 1.55336 -0.266172 0
M  V30 4386 C 427.104 1.85236 0.233315 0
M  V30 4387 C 427.455 1.18816 1.56132 0
M  V30 4388 O 426.58 0.473307 2.11161 0
M  V30 4389 C 427.175 3.36059 0.430113 0
M  V30 4390 C 425.734 3.66116 0.873842 0
M  V30 4391 C 424.881 2.77274 -0.0380016 0
M  V30 4392 H 427.832 1.51004 -0.488214 0
M  V30 4393 H 427.853 3.58681 1.26998 0
M  V30 4394 H 427.365 3.84373 -0.536588 0
M  V30 4395 H 425.466 3.23295 1.85233 0
M  V30 4396 H 425.579 4.73699 0.717358 0
M  V30 4397 H 423.943 2.50198 0.476759 0
M  V30 4398 H 424.726 3.284 -1.00042 0
M  V30 4399 N 427.171 -0.0066808 1.57599 0
M  V30 4400 C 428.42 -0.692078 1.89455 0
M  V30 4401 C 428.733 -1.75306 0.867586 0
M  V30 4402 O 429.939 -2.49262 1.07614 0
M  V30 4403 C 428.395 -1.2821 3.36289 0
M  V30 4404 C 428.003 -0.256291 4.47266 0
M  V30 4405 C 429.747 -1.94608 3.77264 0
M  V30 4406 C 427.654 -0.855927 5.85173 0
M  V30 4407 H 426.584 -0.262252 0.706923 0
M  V30 4408 H 429.235 0.052769 1.83424 0
M  V30 4409 H 427.617 -2.0774 3.37135 0
M  V30 4410 H 428.791 0.513923 4.57925 0
M  V30 4411 H 427.106 0.306862 4.15268 0
M  V30 4412 H 429.703 -2.40364 4.77629 0
M  V30 4413 H 430.046 -2.77382 3.10427 0
M  V30 4414 H 430.579 -1.21822 3.78688 0
M  V30 4415 H 427.318 -0.0671161 6.55466 0
M  V30 4416 H 426.838 -1.59546 5.78191 0
M  V30 4417 H 428.517 -1.35658 6.32618 0
M  V30 4418 N 428.649 -1.55105 -0.279332 0
M  V30 4419 C 429.897 -1.75066 -1.00977 0
M  V30 4420 C 430.218 -0.551276 -1.87045 0
M  V30 4421 O 429.488 0.433984 -1.91032 0
M  V30 4422 H 428.068 -0.645578 -0.375816 0
M  V30 4423 H 430.73 -1.92497 -0.305089 0
M  V30 4424 H 429.826 -2.64894 -1.65038 0
M  V30 4425 N 430.127 0.543554 -1.4793 0
M  V30 4426 C 431.376 1.29649 -1.54512 0
M  V30 4427 C 431.689 1.94382 -0.217973 0
M  V30 4428 O 432.895 2.71017 -0.161908 0
M  V30 4429 C 431.351 2.35175 -2.72435 0
M  V30 4430 C 430.959 1.76572 -4.11736 0
M  V30 4431 C 432.703 3.11564 -2.8832 0
M  V30 4432 C 430.61 2.79958 -5.20939 0
M  V30 4433 H 429.54 0.487541 -0.57517 0
M  V30 4434 H 432.191 0.575708 -1.74235 0
M  V30 4435 H 430.573 3.10229 -2.46118 0
M  V30 4436 H 431.747 1.07799 -4.48013 0
M  V30 4437 H 430.062 1.12722 -4.00852 0
M  V30 4438 H 432.659 3.88794 -3.67074 0
M  V30 4439 H 433.002 3.66594 -1.97268 0
M  V30 4440 H 433.535 2.43623 -3.14472 0
M  V30 4441 H 430.274 2.29766 -6.13912 0
M  V30 4442 H 429.794 3.47101 -4.89164 0
M  V30 4443 H 431.473 3.43198 -5.48474 0
M  V30 4444 N 431.605 1.3629 0.791371 0
M  V30 4445 C 432.851 1.30605 1.55146 0
M  V30 4446 C 433.184 -0.115042 1.93859 0
M  V30 4447 O 432.459 -1.06798 1.62556 0
M  V30 4448 C 432.742 2.22692 2.82985 0
M  V30 4449 C 432.595 3.73489 2.50651 0
M  V30 4450 C 433.914 2.13588 3.84796 0
M  V30 4451 H 431.033 0.475761 0.562868 0
M  V30 4452 H 433.675 1.66825 0.909358 0
M  V30 4453 H 431.825 1.91933 3.37778 0
M  V30 4454 H 433.497 4.14758 2.01924 0
M  V30 4455 H 431.74 3.93021 1.83622 0
M  V30 4456 H 432.411 4.3333 3.41949 0
M  V30 4457 H 434.887 2.40659 3.39445 0
M  V30 4458 H 433.763 2.80195 4.71998 0
M  V30 4459 H 434.024 1.12256 4.27611 0
M  V30 4460 N 433.083 -1.0153 1.20538 0
M  V30 4461 C 434.311 -1.78746 1.04199 0
M  V30 4462 C 434.726 -1.84323 -0.408733 0
M  V30 4463 O 434.083 -1.29714 -1.28377 0
M  V30 4464 C 434.134 -3.23152 1.62035 0
M  V30 4465 O 433.855 -3.17918 3.0143 0
M  V30 4466 C 435.356 -4.16911 1.50666 0
M  V30 4467 H 432.576 -0.56208 0.366479 0
M  V30 4468 H 435.12 -1.27794 1.59653 0
M  V30 4469 H 433.275 -3.71248 1.10697 0
M  V30 4470 H 433.689 -4.08567 3.28897 0
M  V30 4471 H 435.163 -5.16072 1.95892 0
M  V30 4472 H 435.64 -4.36791 0.459363 0
M  V30 4473 H 436.246 -3.74698 2.01201 0
M  V30 4474 N 434.561 -1.01147 -1.20859 0
M  V30 4475 C 435.786 -0.716698 -1.94623 0
M  V30 4476 C 436.211 0.715415 -1.73964 0
M  V30 4477 O 435.569 1.49157 -1.03062 0
M  V30 4478 C 435.617 -1.0513 -3.44935 0
M  V30 4479 O 434.721 -0.160131 -4.12089 0
M  V30 4480 H 434.062 -0.266404 -0.608214 0
M  V30 4481 H 436.592 -1.35346 -1.53436 0
M  V30 4482 H 436.602 -1.00086 -3.95533 0
M  V30 4483 H 435.277 -2.09475 -3.59295 0
M  V30 4484 H 433.854 -0.267657 -3.71938 0
M  V30 4485 N 436.039 1.36541 -0.78704 0
M  V30 4486 C 436.969 2.32659 -0.197992 0
M  V30 4487 C 437.95 1.56533 0.665697 0
M  V30 4488 O 439.135 1.84698 0.60001 0
M  V30 4489 C 436.265 3.40778 0.669901 0
M  V30 4490 C 435.219 4.27897 -0.0937039 0
M  V30 4491 C 434.545 5.27163 0.894629 0
M  V30 4492 C 435.845 5.06334 -1.28154 0
M  V30 4493 H 437.539 2.82171 -1.00099 0
M  V30 4494 H 435.085 1.35665 -0.482793 0
M  V30 4495 H 437.038 4.07008 1.09191 0
M  V30 4496 H 435.762 2.89827 1.50558 0
M  V30 4497 H 434.421 3.6322 -0.49666 0
M  V30 4498 H 434.069 4.72486 1.72527 0
M  V30 4499 H 433.769 5.86317 0.388149 0
M  V30 4500 H 435.293 5.96266 1.31525 0
M  V30 4501 H 436.707 5.65617 -0.93541 0
M  V30 4502 H 435.104 5.74888 -1.72115 0
M  V30 4503 H 436.174 4.38114 -2.07807 0
M  V30 4504 N 437.518 0.538854 1.48102 0
M  V30 4505 C 438.448 -0.207654 2.32575 0
M  V30 4506 C 439.429 -0.926559 1.4265 0
M  V30 4507 O 440.614 -0.91061 1.71527 0
M  V30 4508 C 437.744 -1.24957 3.24042 0
M  V30 4509 C 436.698 -0.648263 4.23062 0
M  V30 4510 C 436.024 -1.79348 5.03725 0
M  V30 4511 C 437.324 0.385897 5.20872 0
M  V30 4512 H 439.018 0.497534 2.95237 0
M  V30 4513 H 436.564 0.240715 1.41974 0
M  V30 4514 H 438.517 -1.77983 3.81969 0
M  V30 4515 H 437.241 -1.98446 2.59397 0
M  V30 4516 H 435.9 -0.139452 3.66335 0
M  V30 4517 H 435.548 -2.51696 4.35498 0
M  V30 4518 H 435.248 -1.39702 5.70751 0
M  V30 4519 H 436.772 -2.32735 5.64506 0
M  V30 4520 H 438.186 -0.057607 5.73271 0
M  V30 4521 H 436.583 0.700227 5.96001 0
M  V30 4522 H 437.653 1.28848 4.67468 0
M  V30 4523 N 438.996 -1.55193 0.274407 0
M  V30 4524 C 440.242 -1.99877 -0.343086 0
M  V30 4525 C 440.575 -1.16256 -1.55558 0
M  V30 4526 O 439.85 -0.232462 -1.93106 0
M  V30 4527 C 440.133 -3.52706 -0.725965 0
M  V30 4528 C 439.986 -4.47081 0.493818 0
M  V30 4529 C 441.305 -4.11422 -1.56268 0
M  V30 4530 H 438.424 -0.726625 -0.123229 0
M  V30 4531 H 441.066 -1.86136 0.38121 0
M  V30 4532 H 439.216 -3.64546 -1.34307 0
M  V30 4533 H 440.888 -4.47186 1.13237 0
M  V30 4534 H 439.131 -4.1877 1.13201 0
M  V30 4535 H 439.802 -5.51699 0.18217 0
M  V30 4536 H 442.278 -4.02855 -1.04151 0
M  V30 4537 H 441.154 -5.18568 -1.79939 0
M  V30 4538 H 441.415 -3.61607 -2.54348 0
M  V30 4539 N 440.474 -0.00167713 -1.576 0
M  V30 4540 C 441.714 0.687302 -1.92498 0
M  V30 4541 C 442.078 1.70844 -0.876144 0
M  V30 4542 O 443.279 2.44792 -1.11043 0
M  V30 4543 C 441.55 1.31217 -3.32441 0
M  V30 4544 S 443.109 2.02604 -3.89226 0
M  V30 4545 H 439.927 0.226985 -0.673794 0
M  V30 4546 H 442.529 -0.0587666 -1.95412 0
M  V30 4547 H 441.233 0.556164 -4.06614 0
M  V30 4548 H 440.764 2.09613 -3.32905 0
M  V30 4549 H 442.779 3.30137 -3.70438 0
M  V30 4550 N 441.952 1.55251 0.271103 0
M  V30 4551 C 443.199 1.75946 1.00245 0
M  V30 4552 C 443.527 0.561611 1.86215 0
M  V30 4553 O 442.782 -0.455832 1.90317 0
M  V30 4554 C 443.081 3.01879 1.91321 0
M  V30 4555 C 442.747 4.34337 1.21086 0
M  V30 4556 C 441.409 4.70338 1.01666 0
M  V30 4557 C 443.761 5.16325 0.71119 0
M  V30 4558 C 441.089 5.8588 0.310099 0
M  V30 4559 C 443.441 6.32597 0.0182157 0
M  V30 4560 C 442.105 6.67236 -0.18768 0
M  V30 4561 H 441.375 0.643833 0.366824 0
M  V30 4562 H 444.022 1.89521 0.27458 0
M  V30 4563 H 442.327 2.83212 2.70736 0
M  V30 4564 H 444.024 3.15088 2.48033 0
M  V30 4565 H 440.614 4.06043 1.37213 0
M  V30 4566 H 444.798 4.88987 0.848844 0
M  V30 4567 H 440.054 6.1124 0.139873 0
M  V30 4568 H 444.228 6.9538 -0.376711 0
M  V30 4569 H 441.855 7.56618 -0.73715 0
M  V30 4570 N 443.43 -0.535701 1.48216 0
M  V30 4571 C 444.363 -1.65726 1.56876 0
M  V30 4572 C 445.341 -1.57094 0.419542 0
M  V30 4573 O 446.525 -1.77648 0.630352 0
M  V30 4574 C 443.652 -3.04096 1.49142 0
M  V30 4575 C 442.698 -3.31105 2.68834 0
M  V30 4576 S 443.531 -3.18001 4.30854 0
M  V30 4577 C 444.687 -4.58828 4.25709 0
M  V30 4578 H 444.92 -1.58129 2.51759 0
M  V30 4579 H 442.453 -0.718218 1.36678 0
M  V30 4580 H 444.411 -3.839 1.45366 0
M  V30 4581 H 443.072 -3.09139 0.556067 0
M  V30 4582 H 442.265 -4.32033 2.59545 0
M  V30 4583 H 441.867 -2.58961 2.69843 0
M  V30 4584 H 444.159 -5.5023 3.95289 0
M  V30 4585 H 445.102 -4.73172 5.26796 0
M  V30 4586 H 445.51 -4.37883 3.56257 0
M  V30 4587 N 444.908 -1.36708 -0.784132 0
M  V30 4588 C 445.871 -1.31307 -1.87859 0
M  V30 4589 C 446.871 -0.219654 -1.59293 0
M  V30 4590 O 448.061 -0.47476 -1.67606 0
M  V30 4591 C 445.193 -1.03679 -3.24751 0
M  V30 4592 H 446.386 -2.28647 -1.94064 0
M  V30 4593 H 443.939 -1.21558 -0.98252 0
M  V30 4594 H 444.674 -0.0681936 -3.24228 0
M  V30 4595 H 444.459 -1.82811 -3.46876 0
M  V30 4596 H 445.949 -1.02518 -4.04821 0
M  V30 4597 N 446.386 1.0089 -1.21074 0
M  V30 4598 C 447.616 1.77933 -1.04993 0
M  V30 4599 C 448.024 1.84847 0.403495 0
M  V30 4600 O 447.367 1.30606 1.29181 0
M  V30 4601 C 447.429 3.23541 -1.56722 0
M  V30 4602 C 447.093 3.40214 -3.05129 0
M  V30 4603 C 448.09 3.2881 -4.02716 0
M  V30 4604 C 445.775 3.65781 -3.44252 0
M  V30 4605 C 447.769 3.42732 -5.37414 0
M  V30 4606 C 445.456 3.79346 -4.79103 0
M  V30 4607 C 446.454 3.67827 -5.75493 0
M  V30 4608 O 446.142 3.80965 -7.07899 0
M  V30 4609 H 445.874 0.566157 -0.369381 0
M  V30 4610 H 448.428 1.27826 -1.60779 0
M  V30 4611 H 446.658 3.74766 -0.953285 0
M  V30 4612 H 448.347 3.82245 -1.36543 0
M  V30 4613 H 449.113 3.08986 -3.73835 0
M  V30 4614 H 444.992 3.73831 -2.69762 0
M  V30 4615 H 448.536 3.33658 -6.12632 0
M  V30 4616 H 444.433 3.98672 -5.07672 0
M  V30 4617 H 445.201 3.97937 -7.15254 0
M  V30 4618 N 447.864 1.01787 1.20321 0
M  V30 4619 C 449.111 0.707936 1.89722 0
M  V30 4620 C 449.439 -0.762535 1.78929 0
M  V30 4621 O 448.694 -1.56977 1.16861 0
M  V30 4622 C 448.993 1.09076 3.40349 0
M  V30 4623 C 448.659 2.55765 3.71342 0
M  V30 4624 C 447.321 2.95845 3.79511 0
M  V30 4625 C 449.673 3.50723 3.85542 0
M  V30 4626 C 447.001 4.2982 3.99339 0
M  V30 4627 C 449.353 4.84387 4.06881 0
M  V30 4628 C 448.017 5.24172 4.1328 0
M  V30 4629 H 447.287 0.259052 0.694243 0
M  V30 4630 H 449.934 1.27868 1.42555 0
M  V30 4631 H 448.239 0.438453 3.89339 0
M  V30 4632 H 449.936 0.828636 3.92345 0
M  V30 4633 H 446.526 2.2371 3.65584 0
M  V30 4634 H 450.71 3.20916 3.78585 0
M  V30 4635 H 445.966 4.60196 4.02529 0
M  V30 4636 H 450.14 5.57891 4.1681 0
M  V30 4637 H 447.767 6.27997 4.28396 0
M  V30 4638 N 449.342 -1.36122 0.79427 0
M  V30 4639 C 450.59 -1.98718 0.368177 0
M  V30 4640 C 450.911 -1.63345 -1.06506 0
M  V30 4641 O 450.181 -0.909825 -1.73491 0
M  V30 4642 H 448.761 -0.735038 0.133146 0
M  V30 4643 H 451.423 -1.66239 1.01739 0
M  V30 4644 H 450.519 -3.08633 0.463923 0
M  V30 4645 N 450.82 -0.546701 -1.47814 0
M  V30 4646 C 452.066 -0.0187684 -2.02791 0
M  V30 4647 C 452.399 1.32338 -1.42128 0
M  V30 4648 O 451.674 1.85867 -0.573023 0
M  V30 4649 C 451.957 0.0854985 -3.59998 0
M  V30 4650 C 451.81 -1.283 -4.31114 0
M  V30 4651 C 453.129 0.80412 -4.32691 0
M  V30 4652 H 450.248 -0.0082946 -0.736953 0
M  V30 4653 H 452.89 -0.706962 -1.76358 0
M  V30 4654 H 451.04 0.671609 -3.82651 0
M  V30 4655 H 452.712 -1.91151 -4.19832 0
M  V30 4656 H 450.955 -1.86049 -3.91878 0
M  V30 4657 H 451.626 -1.16287 -5.39612 0
M  V30 4658 H 454.102 0.306576 -4.14969 0
M  V30 4659 H 452.978 0.846011 -5.42341 0
M  V30 4660 H 453.239 1.85802 -4.01161 0
M  V30 4661 N 452.299 1.55045 -0.282633 0
M  V30 4662 C 453.524 2.04628 0.337977 0
M  V30 4663 C 453.949 1.15937 1.48123 0
M  V30 4664 O 453.307 0.159532 1.80597 0
M  V30 4665 C 453.355 3.51854 0.78936 0
M  V30 4666 O 452.459 3.66236 1.89592 0
M  V30 4667 H 451.8 0.660434 0.0687261 0
M  V30 4668 H 454.33 2.00261 -0.419124 0
M  V30 4669 H 454.34 3.93361 1.08311 0
M  V30 4670 H 453.015 4.15873 -0.0470419 0
M  V30 4671 H 451.592 3.36633 1.60413 0
M  V30 4672 N 453.777 0.010035 1.57597 0
M  V30 4673 C 454.74 -0.963029 2.07986 0
M  V30 4674 C 455.74 -1.26619 0.991173 0
M  V30 4675 O 456.93 -1.2097 1.25347 0
M  V30 4676 C 454.062 -2.2851 2.52974 0
M  V30 4677 H 455.255 -0.526971 2.95234 0
M  V30 4678 H 452.808 -0.237639 1.54483 0
M  V30 4679 H 453.543 -2.76784 1.69 0
M  V30 4680 H 453.328 -2.07824 3.32493 0
M  V30 4681 H 454.818 -2.98294 2.9225 0
M  V30 4682 N 455.255 -1.55392 -0.262866 0
M  V30 4683 C 456.218 -1.88181 -1.30846 0
M  V30 4684 C 457.218 -0.757079 -1.41862 0
M  V30 4685 O 458.408 -1.02519 -1.40838 0
M  V30 4686 C 455.54 -2.09609 -2.68844 0
M  V30 4687 H 456.733 -2.81659 -1.02997 0
M  V30 4688 H 454.286 -1.48039 -0.501414 0
M  V30 4689 H 455.021 -1.18547 -3.01856 0
M  V30 4690 H 454.806 -2.91508 -2.62231 0
M  V30 4691 H 456.296 -2.36215 -3.44372 0
M  V30 4692 N 456.733 0.527833 -1.48498 0
M  V30 4693 C 457.663 1.64136 -1.66077 0
M  V30 4694 C 458.644 1.62286 -0.509625 0
M  V30 4695 O 459.829 1.79449 -0.742413 0
M  V30 4696 C 456.959 3.02717 -1.70234 0
M  V30 4697 C 455.913 3.19426 -2.8487 0
M  V30 4698 C 455.239 4.5909 -2.74118 0
M  V30 4699 C 456.539 3.01993 -4.26142 0
M  V30 4700 H 458.233 1.4968 -2.593 0
M  V30 4701 H 455.779 0.718654 -1.24785 0
M  V30 4702 H 457.732 3.80491 -1.8112 0
M  V30 4703 H 456.456 3.18201 -0.735911 0
M  V30 4704 H 455.115 2.4407 -2.73542 0
M  V30 4705 H 454.763 4.71413 -1.7544 0
M  V30 4706 H 454.463 4.71214 -3.51042 0
M  V30 4707 H 455.987 5.3896 -2.86974 0
M  V30 4708 H 457.401 3.69558 -4.38292 0
M  V30 4709 H 455.798 3.2561 -5.04082 0
M  V30 4710 H 456.868 1.98396 -4.42456 0
M  V30 4711 N 458.211 1.37122 0.776871 0
M  V30 4712 C 459.439 1.3523 1.5659 0
M  V30 4713 C 459.854 -0.0635518 1.88693 0
M  V30 4714 O 459.211 -1.02394 1.51069 0
M  V30 4715 C 459.262 2.18583 2.8793 0
M  V30 4716 O 458.983 3.5465 2.57206 0
M  V30 4717 C 460.484 2.24612 3.82183 0
M  V30 4718 H 457.704 0.4634 0.485285 0
M  V30 4719 H 460.248 1.80392 0.963266 0
M  V30 4720 H 458.403 1.76943 3.4463 0
M  V30 4721 H 458.817 3.98286 3.41275 0
M  V30 4722 H 460.291 2.87267 4.71361 0
M  V30 4723 H 460.768 1.25309 4.20944 0
M  V30 4724 H 461.374 2.66543 3.31414 0
M  V30 4725 N 459.689 -1.00246 1.21608 0
M  V30 4726 C 460.619 -2.10921 1.00172 0
M  V30 4727 C 461.6 -1.69938 -0.0741587 0
M  V30 4728 O 462.785 -1.94009 0.0861753 0
M  V30 4729 C 459.915 -3.42618 0.568355 0
M  V30 4730 C 458.869 -3.97407 1.58909 0
M  V30 4731 C 458.195 -5.25038 1.01187 0
M  V30 4732 C 459.495 -4.2918 2.97661 0
M  V30 4733 H 461.189 -2.29112 1.92739 0
M  V30 4734 H 458.735 -1.10101 0.928102 0
M  V30 4735 H 460.688 -4.19444 0.405555 0
M  V30 4736 H 459.412 -3.24227 -0.392961 0
M  V30 4737 H 458.071 -3.22703 1.73949 0
M  V30 4738 H 457.719 -5.02982 0.0421965 0
M  V30 4739 H 457.419 -5.62661 1.6937 0
M  V30 4740 H 458.943 -6.04507 0.860448 0
M  V30 4741 H 460.357 -4.96839 2.86049 0
M  V30 4742 H 458.754 -4.77952 3.6288 0
M  V30 4743 H 459.824 -3.3735 3.48315 0
M  V30 4744 N 461.167 -1.02423 -1.1978 0
M  V30 4745 C 462.1 -0.545641 -2.21581 0
M  V30 4746 C 463.078 0.411024 -1.57319 0
M  V30 4747 O 464.262 0.329223 -1.85603 0
M  V30 4748 C 461.389 0.204973 -3.38079 0
M  V30 4749 C 460.435 -0.70241 -4.20676 0
M  V30 4750 S 461.268 -2.17595 -4.89298 0
M  V30 4751 C 462.424 -1.43572 -6.09211 0
M  V30 4752 H 462.657 -1.4082 -2.61834 0
M  V30 4753 H 460.19 -0.833771 -1.29952 0
M  V30 4754 H 462.148 0.631924 -4.05607 0
M  V30 4755 H 460.809 1.0432 -2.9627 0
M  V30 4756 H 460.002 -0.123193 -5.03849 0
M  V30 4757 H 459.604 -1.06747 -3.58442 0
M  V30 4758 H 461.896 -0.719806 -6.73665 0
M  V30 4759 H 462.839 -2.24388 -6.71607 0
M  V30 4760 H 463.247 -0.935252 -5.56699 0
M  V30 4761 N 462.645 1.35699 -0.801477 0
M  V30 4762 C 463.578 2.2768 -0.153922 0
M  V30 4763 C 464.556 1.47832 0.67709 0
M  V30 4764 O 465.74 1.77104 0.645474 0
M  V30 4765 C 462.867 3.2943 0.786986 0
M  V30 4766 C 461.913 4.26485 0.0362447 0
M  V30 4767 S 462.746 5.19573 -1.2963 0
M  V30 4768 C 463.902 6.24866 -0.359705 0
M  V30 4769 H 464.135 2.82254 -0.9338 0
M  V30 4770 H 461.668 1.42421 -0.596283 0
M  V30 4771 H 463.626 3.8855 1.32436 0
M  V30 4772 H 462.287 2.73745 1.54021 0
M  V30 4773 H 461.48 4.98378 0.750668 0
M  V30 4774 H 461.082 3.71508 -0.431017 0
M  V30 4775 H 463.374 6.75957 0.456954 0
M  V30 4776 H 464.317 7.00307 -1.04768 0
M  V30 4777 H 464.725 5.64484 0.0423274 0
M  V30 4778 N 464.123 0.554532 1.47522 0
M  V30 4779 C 465.534 0.120446 1.86311 0
M  V30 4780 C 465.885 -1.30904 1.46145 0
M  V30 4781 O 465.01 -1.98434 0.863294 0
M  V30 4782 C 465.605 0.211808 3.38137 0
M  V30 4783 C 464.164 -0.167224 3.76028 0
M  V30 4784 C 463.311 0.560576 2.71575 0
M  V30 4785 H 466.262 0.764408 1.39077 0
M  V30 4786 H 466.283 -0.570275 3.76202 0
M  V30 4787 H 465.795 1.25232 3.6734 0
M  V30 4788 H 463.896 -1.20894 3.52442 0
M  V30 4789 H 464.009 0.189473 4.78725 0
M  V30 4790 H 462.373 0.00396836 2.547 0
M  V30 4791 H 463.156 1.60219 3.0362 0
M  V30 4792 N 465.601 -1.54893 0.290851 0
M  V30 4793 C 466.831 -2.04047 -0.323818 0
M  V30 4794 C 467.239 -1.16809 -1.48837 0
M  V30 4795 O 466.582 -0.184145 -1.82775 0
M  V30 4796 C 466.644 -3.49248 -0.852395 0
M  V30 4797 C 466.308 -4.56623 0.185557 0
M  V30 4798 C 467.305 -5.09985 1.01053 0
M  V30 4799 C 464.99 -5.01252 0.324332 0
M  V30 4800 C 466.984 -6.06507 1.96031 0
M  V30 4801 C 464.671 -5.97596 1.27757 0
M  V30 4802 C 465.669 -6.50107 2.09405 0
M  V30 4803 O 465.357 -7.44565 3.03114 0
M  V30 4804 H 465.089 -0.671735 -0.0758129 0
M  V30 4805 H 467.643 -2.00947 0.425393 0
M  V30 4806 H 465.873 -3.49639 -1.65195 0
M  V30 4807 H 467.562 -3.81654 -1.38185 0
M  V30 4808 H 468.328 -4.76307 0.914129 0
M  V30 4809 H 464.207 -4.60015 -0.301213 0
M  V30 4810 H 467.751 -6.47418 2.598 0
M  V30 4811 H 463.648 -6.30691 1.37473 0
M  V30 4812 H 464.416 -7.62334 2.97976 0
M  V30 4813 N 467.08 -0.0183926 -1.57589 0
M  V30 4814 C 468.31 0.67207 -1.95363 0
M  V30 4815 C 468.718 1.66807 -0.892872 0
M  V30 4816 O 468.061 1.83204 0.134958 0
M  V30 4817 C 468.123 1.44397 -3.29226 0
M  V30 4818 C 467.787 0.607511 -4.52944 0
M  V30 4819 C 468.784 -0.112657 -5.19778 0
M  V30 4820 C 466.469 0.548068 -4.99301 0
M  V30 4821 C 468.463 -0.881057 -6.31281 0
M  V30 4822 C 466.15 -0.224044 -6.10689 0
M  V30 4823 C 467.148 -0.937323 -6.76538 0
M  V30 4824 O 466.836 -1.6968 -7.85789 0
M  V30 4825 H 466.568 0.190925 -0.648478 0
M  V30 4826 H 469.122 -0.0711994 -2.05277 0
M  V30 4827 H 467.352 2.23214 -3.15773 0
M  V30 4828 H 469.041 2.02152 -3.51979 0
M  V30 4829 H 469.807 -0.0759998 -4.8494 0
M  V30 4830 H 465.686 1.09281 -4.4786 0
M  V30 4831 H 469.23 -1.43832 -6.82611 0
M  V30 4832 H 465.127 -0.262457 -6.44966 0
M  V30 4833 H 465.895 -1.61544 -8.024 0
M  V30 4834 N 468.558 1.5553 0.254621 0
M  V30 4835 C 469.488 1.9268 1.31897 0
M  V30 4836 C 470.469 0.790797 1.506 0
M  V30 4837 O 471.654 1.05045 1.63337 0
M  V30 4838 C 468.784 2.21477 2.67517 0
M  V30 4839 C 467.738 3.37256 2.63519 0
M  V30 4840 C 467.064 3.51576 4.02862 0
M  V30 4841 C 468.364 4.73157 2.21179 0
M  V30 4842 H 470.058 2.81832 1.01051 0
M  V30 4843 H 467.604 1.35599 0.484662 0
M  V30 4844 H 469.557 2.46055 3.42104 0
M  V30 4845 H 468.281 1.29144 2.99982 0
M  V30 4846 H 466.94 3.12675 1.9139 0
M  V30 4847 H 466.588 2.56676 4.32581 0
M  V30 4848 H 466.288 4.2943 4.01078 0
M  V30 4849 H 467.812 3.78467 4.79161 0
M  V30 4850 H 469.226 4.97158 2.85494 0
M  V30 4851 H 467.623 5.54058 2.30521 0
M  V30 4852 H 468.693 4.70739 1.16332 0
M  V30 4853 N 470.036 -0.519951 1.48776 0
M  V30 4854 C 470.966 -1.63253 1.66945 0
M  V30 4855 C 471.947 -1.62014 0.518224 0
M  V30 4856 O 473.132 -1.79053 0.751919 0
M  V30 4857 C 470.262 -3.0181 1.71836 0
M  V30 4858 C 469.216 -3.17911 2.8656 0
M  V30 4859 C 468.542 -4.5763 2.76548 0
M  V30 4860 C 469.842 -2.99729 4.27738 0
M  V30 4861 H 471.536 -1.48302 2.6009 0
M  V30 4862 H 469.082 -0.712026 1.25165 0
M  V30 4863 H 471.035 -3.79525 1.83135 0
M  V30 4864 H 469.759 -3.17806 0.752775 0
M  V30 4865 H 468.418 -2.42616 2.74833 0
M  V30 4866 H 468.066 -4.70476 1.77937 0
M  V30 4867 H 467.766 -4.69346 3.53536 0
M  V30 4868 H 469.29 -5.37431 2.89828 0
M  V30 4869 H 470.704 -3.67228 4.40246 0
M  V30 4870 H 469.101 -3.22932 5.05801 0
M  V30 4871 H 470.171 -1.96047 4.43502 0
M  V30 4872 N 471.514 -1.37532 -0.769588 0
M  V30 4873 C 472.791 -1.23392 -1.51768 0
M  V30 4874 C 473.171 0.17157 -2.10402 0
M  V30 4875 O 472.519 1.17943 -1.95708 0
M  V30 4876 C 472.729 -2.33163 -2.59685 0
M  V30 4877 C 474.077 -2.70809 -3.27028 0
M  V30 4878 O 475.101 -2.32355 -2.69981 0
M  V30 4879 O 473.96 -3.37066 -4.30173 0
M  V30 4880 H 471.054 -0.481617 -0.67229 0
M  V30 4881 H 473.6 -1.49318 -0.806368 0
M  V30 4882 H 472.372 -3.27273 -2.14494 0
M  V30 4883 H 471.995 -2.08713 -3.38415 0
M  V30 4884 N 472.992 0.995999 -1.22138 0
M  V30 4885 C 473.902 2.11985 -1.00496 0
M  V30 4886 C 474.918 1.7394 0.0457701 0
M  V30 4887 O 476.094 2.00868 -0.146273 0
M  V30 4888 C 473.159 3.41779 -0.582086 0
M  V30 4889 C 472.22 3.93943 -1.70608 0
M  V30 4890 C 471.453 5.17542 -1.30328 0
M  V30 4891 O 471.676 5.70114 -0.180743 0
M  V30 4892 O 470.61 5.63382 -2.11861 0
M  V30 4893 H 474.436 2.33123 -1.94647 0
M  V30 4894 H 472.021 1.10358 -1.00705 0
M  V30 4895 H 473.903 4.1989 -0.356467 0
M  V30 4896 H 472.578 3.22007 0.330592 0
M  V30 4897 H 471.485 3.17019 -1.98619 0
M  V30 4898 H 472.818 4.18141 -2.59651 0
M  V30 4899 N 474.47 1.03057 1.19235 0
M  V30 4900 C 475.417 0.612832 2.22515 0
M  V30 4901 C 476.387 -0.374224 1.61829 0
M  V30 4902 O 477.572 -0.270501 1.88873 0
M  V30 4903 C 474.712 -0.028475 3.45088 0
M  V30 4904 C 473.825 1.00483 4.20151 0
M  V30 4905 C 472.96 0.333102 5.30155 0
M  V30 4906 C 471.999 1.3522 5.96977 0
M  V30 4907 N 471.136 0.70616 6.9854 0
M  V30 4908 H 475.976 1.49812 2.57605 0
M  V30 4909 H 473.513 0.749658 1.26564 0
M  V30 4910 H 475.471 -0.417548 4.15105 0
M  V30 4911 H 474.101 -0.877334 3.10649 0
M  V30 4912 H 473.153 1.51194 3.49062 0
M  V30 4913 H 474.465 1.77929 4.65986 0
M  V30 4914 H 473.619 -0.110725 6.06599 0
M  V30 4915 H 472.358 -0.473547 4.85396 0
M  V30 4916 H 471.363 1.80627 5.19282 0
M  V30 4917 H 472.588 2.16037 6.4382 0
M  V30 4918 H 470.534 -0.0803667 6.55951 0
M  V30 4919 H 470.451 1.41848 7.42573 0
M  V30 4920 H 471.719 0.286391 7.78974 0
M  V30 4921 N 475.948 -1.35272 0.808662 0
M  V30 4922 C 477.173 -2.03477 0.401475 0
M  V30 4923 C 477.598 -1.60537 -0.980279 0
M  V30 4924 O 476.956 -0.78304 -1.63518 0
M  V30 4925 C 477.004 -3.57181 0.495354 0
M  V30 4926 O 476.108 -4.09474 -0.490397 0
M  V30 4927 H 475.449 -0.642561 0.167366 0
M  V30 4928 H 477.979 -1.72824 1.09512 0
M  V30 4929 H 477.989 -4.06356 0.365912 0
M  V30 4930 H 476.664 -3.87784 1.5032 0
M  V30 4931 H 475.241 -3.71516 -0.321023 0
M  V30 4932 N 477.426 -0.562348 -1.47226 0
M  V30 4933 C 478.837 -0.130325 -1.86245 0
M  V30 4934 C 479.188 1.30128 -1.46838 0
M  V30 4935 O 478.313 1.97974 -0.873805 0
M  V30 4936 C 478.908 -0.229738 -3.3802 0
M  V30 4937 C 477.467 0.14728 -3.76112 0
M  V30 4938 C 476.614 -0.574971 -2.71274 0
M  V30 4939 H 479.565 -0.771773 -1.3867 0
M  V30 4940 H 479.586 0.550316 -3.76499 0
M  V30 4941 H 479.098 -1.27178 -3.66671 0
M  V30 4942 H 477.199 1.19023 -3.53078 0
M  V30 4943 H 477.312 -0.214858 -4.78618 0
M  V30 4944 H 475.676 -0.0174756 -2.54694 0
M  V30 4945 H 476.459 -1.61827 -3.02766 0
M  V30 4946 N 478.904 1.54736 -0.299062 0
M  V30 4947 C 479.834 2.26409 0.571085 0
M  V30 4948 C 480.815 1.2629 1.13951 0
M  V30 4949 O 482 1.55059 1.16921 0
M  V30 4950 C 479.13 3.00338 1.74396 0
M  V30 4951 C 478.084 4.07588 1.30599 0
M  V30 4952 C 477.41 4.69222 2.56387 0
M  V30 4953 C 478.71 5.20455 0.438645 0
M  V30 4954 H 480.404 2.99388 -0.0266991 0
M  V30 4955 H 477.95 1.43993 -0.0142812 0
M  V30 4956 H 479.903 3.49198 2.35878 0
M  V30 4957 H 478.627 2.24934 2.36796 0
M  V30 4958 H 477.286 3.59575 0.71424 0
M  V30 4959 H 476.934 3.9046 3.17097 0
M  V30 4960 H 476.634 5.41653 2.27784 0
M  V30 4961 H 478.158 5.20844 3.18675 0
M  V30 4962 H 479.572 5.65221 0.959085 0
M  V30 4963 H 477.969 5.99594 0.246466 0
M  V30 4964 H 479.039 4.8192 -0.536738 0
M  V30 4965 N 480.382 0.0267497 1.57577 0
M  V30 4966 C 481.793 -0.512413 1.79531 0
M  V30 4967 C 482.144 -1.72391 0.936791 0
M  V30 4968 O 481.269 -2.15903 0.146543 0
M  V30 4969 C 481.864 -0.936378 3.25603 0
M  V30 4970 C 480.423 -1.42067 3.4856 0
M  V30 4971 C 479.57 -0.384278 2.74624 0
M  V30 4972 H 482.521 0.252797 1.56674 0
M  V30 4973 H 482.542 -1.80088 3.35184 0
M  V30 4974 H 482.054 -0.0544332 3.88062 0
M  V30 4975 H 480.155 -2.32262 2.9135 0
M  V30 4976 H 480.268 -1.42968 4.57271 0
M  V30 4977 H 478.632 -0.851855 2.40032 0
M  V30 4978 H 479.415 0.489159 3.39797 0
M  V30 4979 N 481.861 -1.55662 -0.24637 0
M  V30 4980 C 483.107 -1.77782 -0.975779 0
M  V30 4981 C 483.44 -0.592103 -1.84953 0
M  V30 4982 O 482.715 0.409588 -1.90138 0
M  V30 4983 C 482.998 -3.09788 -1.83584 0
M  V30 4984 C 482.851 -4.38764 -0.990241 0
M  V30 4985 C 484.17 -3.38029 -2.81823 0
M  V30 4986 H 481.289 -0.646789 -0.353317 0
M  V30 4987 H 483.931 -1.88398 -0.246248 0
M  V30 4988 H 482.081 -3.00869 -2.45784 0
M  V30 4989 H 483.753 -4.59675 -0.386897 0
M  V30 4990 H 481.996 -4.32798 -0.294626 0
M  V30 4991 H 482.667 -5.27514 -1.62584 0
M  V30 4992 H 485.143 -3.46915 -2.2976 0
M  V30 4993 H 484.019 -4.3161 -3.39122 0
M  V30 4994 H 484.28 -2.58968 -3.58313 0
M  V30 4995 N 483.339 0.512053 -1.4905 0
M  V30 4996 C 484.302 1.59704 -1.64399 0
M  V30 4997 C 485.302 1.52285 -0.516317 0
M  V30 4998 O 486.492 1.55635 -0.782527 0
M  V30 4999 C 483.624 2.9935 -1.63102 0
M  V30 5000 H 484.817 1.47428 -2.61161 0
M  V30 5001 H 482.37 0.735469 -1.37915 0
M  V30 5002 H 483.105 3.17116 -0.678836 0
M  V30 5003 H 482.89 3.06144 -2.44986 0
M  V30 5004 H 484.38 3.782 -1.77072 0
M  V30 5005 N 484.817 1.37938 0.762283 0
M  V30 5006 C 486.064 1.33668 1.52115 0
M  V30 5007 C 486.392 -0.0759538 1.94352 0
M  V30 5008 O 485.647 -1.05121 1.6507 0
M  V30 5009 C 485.946 2.23042 2.79261 0
M  V30 5010 C 485.612 3.71159 2.56031 0
M  V30 5011 C 484.274 4.11523 2.49404 0
M  V30 5012 C 486.626 4.64955 2.35513 0
M  V30 5013 C 483.954 5.43784 2.20263 0
M  V30 5014 C 486.306 5.97464 2.07894 0
M  V30 5015 C 484.97 6.36922 1.99718 0
M  V30 5016 H 484.24 0.489127 0.556629 0
M  V30 5017 H 486.887 1.70224 0.877262 0
M  V30 5018 H 485.192 1.79512 3.48256 0
M  V30 5019 H 486.889 2.17047 3.37182 0
M  V30 5020 H 483.479 3.39153 2.62056 0
M  V30 5021 H 487.663 4.34623 2.39617 0
M  V30 5022 H 482.919 5.73307 2.12435 0
M  V30 5023 H 487.093 6.6969 1.91019 0
M  V30 5024 H 484.72 7.39331 1.76902 0
M  V30 5025 N 486.295 -0.989507 1.22664 0
M  V30 5026 C 487.205 -2.11449 1.01619 0
M  V30 5027 C 488.221 -1.73962 -0.036545 0
M  V30 5028 O 489.397 -2.00788 0.156924 0
M  V30 5029 C 486.462 -3.41465 0.600204 0
M  V30 5030 C 485.523 -3.93033 1.72695 0
M  V30 5031 C 484.756 -5.16844 1.33071 0
M  V30 5032 O 484.979 -5.7001 0.210975 0
M  V30 5033 O 483.913 -5.6225 2.14845 0
M  V30 5034 H 487.739 -2.32088 1.9588 0
M  V30 5035 H 485.324 -1.09823 1.01289 0
M  V30 5036 H 487.206 -4.19695 0.37873 0
M  V30 5037 H 485.881 -3.22178 -0.313511 0
M  V30 5038 H 484.788 -3.15961 2.00298 0
M  V30 5039 H 486.121 -4.16758 2.61865 0
M  V30 5040 N 487.773 -1.03688 -1.18687 0
M  V30 5041 C 489.003 -0.756819 -1.92239 0
M  V30 5042 C 489.411 0.689374 -1.76194 0
M  V30 5043 O 488.754 1.48126 -1.08648 0
M  V30 5044 C 488.816 -1.03851 -3.44173 0
M  V30 5045 C 488.48 -2.47785 -3.83994 0
M  V30 5046 C 489.477 -3.4595 -3.88091 0
M  V30 5047 C 487.162 -2.82397 -4.154 0
M  V30 5048 C 489.156 -4.76779 -4.23038 0
M  V30 5049 C 486.843 -4.13433 -4.50018 0
M  V30 5050 C 487.841 -5.10434 -4.53813 0
M  V30 5051 O 487.529 -6.39122 -4.87625 0
M  V30 5052 H 487.261 -0.275678 -0.617234 0
M  V30 5053 H 489.815 -1.38658 -1.51536 0
M  V30 5054 H 488.045 -0.351612 -3.85098 0
M  V30 5055 H 489.734 -0.746846 -3.9897 0
M  V30 5056 H 490.5 -3.20549 -3.63969 0
M  V30 5057 H 486.379 -2.07568 -4.11627 0
M  V30 5058 H 489.923 -5.52488 -4.25914 0
M  V30 5059 H 485.82 -4.38604 -4.736 0
M  V30 5060 H 486.588 -6.43715 -5.05542 0
M  V30 5061 N 489.251 1.34841 -0.815825 0
M  V30 5062 C 490.497 1.98793 -0.401129 0
M  V30 5063 C 490.83 1.64548 1.03139 0
M  V30 5064 O 490.105 0.913487 1.71714 0
M  V30 5065 C 490.388 3.55143 -0.595409 0
M  V30 5066 C 490.241 3.99155 -2.07352 0
M  V30 5067 C 491.56 4.40092 -0.0268823 0
M  V30 5068 H 488.679 0.722146 -0.14722 0
M  V30 5069 H 491.321 1.59847 -1.02707 0
M  V30 5070 H 489.471 3.8845 -0.0625779 0
M  V30 5071 H 491.143 3.76216 -2.66945 0
M  V30 5072 H 489.386 3.49726 -2.56659 0
M  V30 5073 H 490.057 5.07971 -2.1603 0
M  V30 5074 H 492.533 4.13298 -0.482042 0
M  V30 5075 H 491.409 5.48562 -0.19267 0
M  V30 5076 H 491.67 4.29016 1.06759 0
M  V30 5077 N 490.729 0.570148 1.46925 0
M  V30 5078 C 491.977 0.0508523 2.02036 0
M  V30 5079 C 492.298 -1.30885 1.44548 0
M  V30 5080 O 491.568 -1.85647 0.625453 0
M  V30 5081 H 490.148 0.0158088 0.746833 0
M  V30 5082 H 492.81 0.743086 1.80178 0
M  V30 5083 H 491.906 -0.027575 3.12088 0
M  V30 5084 N 492.207 -1.54576 0.307264 0
M  V30 5085 C 493.453 -2.01272 -0.293453 0
M  V30 5086 C 493.808 -1.19178 -1.51044 0
M  V30 5087 O 493.101 -0.261704 -1.89804 0
M  V30 5088 C 493.295 -3.50572 -0.695253 0
M  V30 5089 C 493.124 -4.47118 0.481249 0
M  V30 5090 C 491.894 -4.958 0.97524 0
M  V30 5091 C 494.092 -4.96853 1.32823 0
M  V30 5092 N 492.074 -5.76212 2.11785 0
M  V30 5093 C 493.445 -5.75028 2.31824 0
M  V30 5094 C 495.5 -4.79026 1.35788 0
M  V30 5095 C 494.203 -6.37276 3.33574 0
M  V30 5096 C 496.229 -5.42097 2.364 0
M  V30 5097 C 495.591 -6.2011 3.34129 0
M  V30 5098 H 491.69 -0.778709 -0.0716705 0
M  V30 5099 H 494.274 -1.89695 0.438602 0
M  V30 5100 H 492.445 -3.62427 -1.39647 0
M  V30 5101 H 494.177 -3.84056 -1.27604 0
M  V30 5102 H 490.932 -4.70405 0.549184 0
M  V30 5103 H 491.356 -6.21101 2.69375 0
M  V30 5104 H 495.998 -4.18288 0.616021 0
M  V30 5105 H 493.716 -6.97144 4.08676 0
M  V30 5106 H 497.302 -5.30229 2.39475 0
M  V30 5107 H 496.182 -6.68049 4.10707 0
M  V30 5108 N 493.685 -0.035106 -1.57561 0
M  V30 5109 C 494.933 0.64096 -1.91667 0
M  V30 5110 C 495.254 1.72323 -0.912681 0
M  V30 5111 O 494.524 1.95849 0.0449089 0
M  V30 5112 H 493.104 0.239743 -0.707483 0
M  V30 5113 H 495.766 -0.084321 -1.94718 0
M  V30 5114 H 494.862 1.08987 -2.92452 0
M  V30 5115 N 495.163 1.55791 0.238111 0
M  V30 5116 C 496.574 1.68383 0.806472 0
M  V30 5117 C 496.925 0.634157 1.85669 0
M  V30 5118 O 496.05 -0.217913 2.153 0
M  V30 5119 C 496.645 3.05268 1.46959 0
M  V30 5120 C 495.204 3.1977 1.98555 0
M  V30 5121 C 494.351 2.64279 0.839763 0
M  V30 5122 H 497.302 1.58694 0.0137535 0
M  V30 5123 H 497.323 3.00203 2.33792 0
M  V30 5124 H 496.835 3.81643 0.704993 0
M  V30 5125 H 494.936 2.48234 2.77868 0
M  V30 5126 H 495.049 4.26788 2.17689 0
M  V30 5127 H 493.413 2.22329 1.24265 0
M  V30 5128 H 494.196 3.43187 0.0881032 0
M  V30 5129 N 496.642 -0.504142 1.49319 0
M  V30 5130 C 497.605 -1.5883 1.65244 0
M  V30 5131 C 498.605 -1.52009 0.524386 0
M  V30 5132 O 499.795 -1.55218 0.79077 0
M  V30 5133 C 496.927 -2.98481 1.64687 0
M  V30 5134 H 498.12 -1.4604 2.61939 0
M  V30 5135 H 495.673 -0.728144 1.38303 0
M  V30 5136 H 496.408 -3.16751 0.695644 0
M  V30 5137 H 496.193 -3.0484 2.46607 0
M  V30 5138 H 497.683 -3.77256 1.79075 0
M  V30 5139 N 498.12 -1.38341 -0.754957 0
M  V30 5140 C 499.067 -1.3546 -1.86867 0
M  V30 5141 C 500.037 -0.217369 -1.64672 0
M  V30 5142 O 501.222 -0.409383 -1.86356 0
M  V30 5143 C 498.362 -1.18413 -3.24149 0
M  V30 5144 C 497.475 -2.41511 -3.58185 0
M  V30 5145 C 496.61 -2.17205 -4.84763 0
M  V30 5146 C 495.649 -3.36081 -5.11582 0
M  V30 5147 N 494.786 -3.11219 -6.29354 0
M  V30 5148 H 499.626 -2.30672 -1.88664 0
M  V30 5149 H 497.163 -1.14607 -0.922154 0
M  V30 5150 H 499.121 -1.06545 -4.03366 0
M  V30 5151 H 497.751 -0.268397 -3.21682 0
M  V30 5152 H 496.803 -2.64056 -2.73822 0
M  V30 5153 H 498.115 -3.30115 -3.73932 0
M  V30 5154 H 497.269 -2.02465 -5.7192 0
M  V30 5155 H 496.008 -1.25964 -4.71152 0
M  V30 5156 H 495.013 -3.51341 -4.22894 0
M  V30 5157 H 496.238 -4.28196 -5.27091 0
M  V30 5158 H 494.184 -2.22624 -6.17069 0
M  V30 5159 H 494.101 -3.93373 -6.45596 0
M  V30 5160 H 495.369 -3.00132 -7.19403 0
M  V30 5161 N 499.598 0.982988 -1.23187 0
M  V30 5162 C 500.828 1.75666 -1.08743 0
M  V30 5163 C 501.236 1.85662 0.364195 0
M  V30 5164 O 500.579 1.33317 1.26382 0
M  V30 5165 C 500.641 3.20144 -1.63549 0
M  V30 5166 C 500.305 3.33665 -3.12277 0
M  V30 5167 C 501.302 3.20194 -4.096 0
M  V30 5168 C 498.987 3.58397 -3.51933 0
M  V30 5169 C 500.981 3.31256 -5.44563 0
M  V30 5170 C 498.668 3.69098 -4.87042 0
M  V30 5171 C 499.666 3.55537 -5.83166 0
M  V30 5172 O 499.354 3.65864 -7.1582 0
M  V30 5173 H 499.086 0.558194 -0.381307 0
M  V30 5174 H 501.64 1.24387 -1.63454 0
M  V30 5175 H 499.87 3.72659 -1.03256 0
M  V30 5176 H 501.559 3.79262 -1.4462 0
M  V30 5177 H 502.325 3.00987 -3.80305 0
M  V30 5178 H 498.204 3.68025 -2.77631 0
M  V30 5179 H 501.748 3.20588 -6.19572 0
M  V30 5180 H 497.645 3.87814 -5.16014 0
M  V30 5181 H 498.413 3.82675 -7.23534 0
M  V30 5182 N 501.076 1.04316 1.18135 0
M  V30 5183 C 502.322 0.749128 1.88457 0
M  V30 5184 C 502.655 -0.72149 1.803 0
M  V30 5185 O 501.93 -1.52676 1.205 0
M  V30 5186 C 502.213 1.21905 3.38838 0
M  V30 5187 C 502.066 2.75195 3.55792 0
M  V30 5188 C 503.385 0.811085 4.32561 0
M  V30 5189 H 500.504 0.273611 0.684329 0
M  V30 5190 H 503.146 1.29561 1.38975 0
M  V30 5191 H 501.296 0.754137 3.8111 0
M  V30 5192 H 502.968 3.29743 3.22595 0
M  V30 5193 H 501.211 3.14899 2.98364 0
M  V30 5194 H 501.882 3.03135 4.61317 0
M  V30 5195 H 504.358 1.21118 3.98082 0
M  V30 5196 H 503.234 1.16761 5.36338 0
M  V30 5197 H 503.495 -0.285596 4.41177 0
M  V30 5198 N 502.554 -1.34406 0.822964 0
M  V30 5199 C 503.8 -1.98578 0.411666 0
M  V30 5200 C 504.133 -1.65093 -1.02264 0
M  V30 5201 O 503.408 -0.92258 -1.71227 0
M  V30 5202 C 503.691 -3.54823 0.614235 0
M  V30 5203 C 503.544 -3.9805 2.09466 0
M  V30 5204 C 504.863 -4.40071 0.050221 0
M  V30 5205 H 501.982 -0.721355 0.151047 0
M  V30 5206 H 504.624 -1.59301 1.03554 0
M  V30 5207 H 502.774 -3.88411 0.0831774 0
M  V30 5208 H 504.446 -3.74795 2.68936 0
M  V30 5209 H 502.689 -3.4836 2.5851 0
M  V30 5210 H 503.36 -5.06819 2.18721 0
M  V30 5211 H 505.836 -4.13037 0.503953 0
M  V30 5212 H 504.712 -5.48452 0.221759 0
M  V30 5213 H 504.973 -4.29576 -1.04482 0
M  V30 5214 N 504.032 -0.577932 -1.46621 0
M  V30 5215 C 504.995 0.147805 -2.28723 0
M  V30 5216 C 505.995 0.823325 -1.38123 0
M  V30 5217 O 507.185 0.676011 -1.60548 0
M  V30 5218 C 504.317 1.21853 -3.18378 0
M  V30 5219 H 505.51 -0.573654 -2.94362 0
M  V30 5220 H 503.063 -0.335703 -1.52652 0
M  V30 5221 H 503.798 1.97173 -2.57475 0
M  V30 5222 H 503.583 0.738714 -3.85078 0
M  V30 5223 H 505.073 1.72768 -3.80186 0
M  V30 5224 N 505.51 1.54411 -0.315457 0
M  V30 5225 C 506.473 2.22713 0.54142 0
M  V30 5226 C 507.473 1.2179 1.04995 0
M  V30 5227 O 508.663 1.46426 0.943667 0
M  V30 5228 C 505.795 2.92485 1.75116 0
M  V30 5229 H 506.988 2.99849 -0.0555508 0
M  V30 5230 H 504.541 1.56159 -0.0664453 0
M  V30 5231 H 505.276 2.19466 2.38758 0
M  V30 5232 H 505.061 3.66483 1.39401 0
M  V30 5233 H 506.551 3.44548 2.35959 0
M  V30 5234 N 506.988 0.0434614 1.5754 0
M  V30 5235 C 508.236 -0.630786 1.92004 0
M  V30 5236 C 508.557 -1.71836 0.921807 0
M  V30 5237 O 507.827 -1.9587 -0.034522 0
M  V30 5238 H 506.407 -0.235988 0.708745 0
M  V30 5239 H 509.069 0.0946462 1.9467 0
M  V30 5240 H 508.165 -1.07434 2.93026 0
M  V30 5241 N 508.466 -1.55915 -0.229846 0
M  V30 5242 C 509.691 -1.8296 -0.976743 0
M  V30 5243 C 510.116 -0.622735 -1.77493 0
M  V30 5244 O 509.474 0.428431 -1.76165 0
M  V30 5245 C 509.522 -3.07916 -1.8767 0
M  V30 5246 O 508.626 -2.86028 -2.97088 0
M  V30 5247 H 507.967 -0.603453 -0.277021 0
M  V30 5248 H 510.497 -2.0312 -0.245669 0
M  V30 5249 H 510.507 -3.37802 -2.2881 0
M  V30 5250 H 509.182 -3.95389 -1.28996 0
M  V30 5251 H 507.759 -2.67355 -2.59954 0
M  V30 5252 N 509.944 0.496216 -1.49584 0
M  V30 5253 C 510.874 1.60576 -1.69521 0
M  V30 5254 C 511.855 1.61169 -0.543933 0
M  V30 5255 O 513.04 1.77834 -0.78031 0
M  V30 5256 C 510.17 2.99038 -1.76616 0
M  V30 5257 C 509.124 3.13312 -2.91581 0
M  V30 5258 C 508.45 4.53172 -2.83794 0
M  V30 5259 C 509.75 2.92886 -4.32452 0
M  V30 5260 H 511.444 1.44146 -2.62416 0
M  V30 5261 H 508.99 0.692024 -1.26282 0
M  V30 5262 H 510.943 3.76564 -1.8915 0
M  V30 5263 H 509.667 3.16568 -0.80324 0
M  V30 5264 H 508.326 2.38213 -2.78658 0
M  V30 5265 H 507.974 4.67585 -1.854 0
M  V30 5266 H 507.674 4.63662 -3.60958 0
M  V30 5267 H 509.198 5.32752 -2.98342 0
M  V30 5268 H 510.612 3.60178 -4.46032 0
M  V30 5269 H 509.009 3.14844 -5.10875 0
M  V30 5270 H 510.079 1.88966 -4.46565 0
M  V30 5271 N 511.423 1.38739 0.74761 0
M  V30 5272 C 512.663 1.36695 1.51966 0
M  V30 5273 C 513.027 -0.0411889 1.91956 0
M  V30 5274 O 514.228 -0.186543 2.68152 0
M  V30 5275 C 512.499 2.30119 2.73459 0
M  V30 5276 S 514.058 2.4615 3.63257 0
M  V30 5277 H 510.876 0.484929 0.519966 0
M  V30 5278 H 513.478 1.7472 0.877104 0
M  V30 5279 H 512.182 3.31312 2.422 0
M  V30 5280 H 511.713 1.93265 3.42655 0
M  V30 5281 H 513.728 1.69001 4.66533 0
M  V30 5282 N 512.901 -0.976442 1.23707 0
M  V30 5283 C 513.864 -2.0511 1.02287 0
M  V30 5284 C 514.864 -1.60791 -0.0167195 0
M  V30 5285 O 516.054 -1.72761 0.223408 0
M  V30 5286 C 513.186 -3.36458 0.548507 0
M  V30 5287 H 514.379 -2.25545 1.9766 0
M  V30 5288 H 511.932 -1.15042 1.05806 0
M  V30 5289 H 512.667 -3.21713 -0.408818 0
M  V30 5290 H 512.452 -3.69967 1.29874 0
M  V30 5291 H 513.942 -4.15489 0.419406 0
M  V30 5292 N 514.379 -1.04941 -1.1758 0
M  V30 5293 C 515.309 -0.669172 -2.23706 0
M  V30 5294 C 516.29 0.331835 -1.66832 0
M  V30 5295 O 517.475 0.209988 -1.93061 0
M  V30 5296 C 514.605 -0.0404889 -3.47276 0
M  V30 5297 C 513.559 -0.965983 -4.16957 0
M  V30 5298 C 512.885 -0.201312 -5.34321 0
M  V30 5299 C 514.185 -2.28902 -4.69469 0
M  V30 5300 H 515.879 -1.55639 -2.55767 0
M  V30 5301 H 513.425 -0.749793 -1.22939 0
M  V30 5302 H 515.378 0.237298 -4.20731 0
M  V30 5303 H 514.102 0.881658 -3.14475 0
M  V30 5304 H 512.761 -1.22829 -3.45411 0
M  V30 5305 H 512.409 0.723519 -4.97769 0
M  V30 5306 H 512.109 -0.817968 -5.81879 0
M  V30 5307 H 513.633 0.0692499 -6.10561 0
M  V30 5308 H 515.047 -2.07132 -5.34574 0
M  V30 5309 H 513.444 -2.85942 -5.27596 0
M  V30 5310 H 514.514 -2.92937 -3.86414 0
M  V30 5311 N 515.857 1.33968 -0.830081 0
M  V30 5312 C 517.082 2.02813 -0.433796 0
M  V30 5313 C 517.507 1.62076 0.954614 0
M  V30 5314 O 516.865 0.808955 1.62252 0
M  V30 5315 C 516.913 3.56348 -0.552115 0
M  V30 5316 O 516.017 4.10202 0.425191 0
M  V30 5317 H 515.358 0.639817 -0.177567 0
M  V30 5318 H 517.888 1.7106 -1.12248 0
M  V30 5319 H 517.898 4.05722 -0.430513 0
M  V30 5320 H 516.573 3.85344 -1.56471 0
M  V30 5321 H 515.15 3.71979 0.261878 0
M  V30 5322 N 517.335 0.585699 1.46312 0
M  V30 5323 C 518.563 0.0781299 2.06752 0
M  V30 5324 C 518.978 -1.22812 1.43396 0
M  V30 5325 O 518.335 -1.74318 0.540314 0
M  V30 5326 C 518.386 -0.0911927 3.61385 0
M  V30 5327 O 518.107 1.16336 4.22371 0
M  V30 5328 C 519.608 -0.632765 4.38761 0
M  V30 5329 H 516.828 0.0588188 0.668417 0
M  V30 5330 H 519.372 0.807218 1.87894 0
M  V30 5331 H 517.527 -0.770514 3.7966 0
M  V30 5332 H 517.941 0.979082 5.15281 0
M  V30 5333 H 519.415 -0.70041 5.47538 0
M  V30 5334 H 519.892 -1.65039 4.07012 0
M  V30 5335 H 520.498 0.0117856 4.25298 0
M  V30 5336 N 518.813 -1.54241 0.323641 0
M  V30 5337 C 520.038 -2.05452 -0.283605 0
M  V30 5338 C 520.463 -1.19823 -1.44997 0
M  V30 5339 O 519.821 -0.207358 -1.8011 0
M  V30 5340 C 519.869 -3.53823 -0.695795 0
M  V30 5341 O 518.973 -3.71134 -1.79815 0
M  V30 5342 H 518.314 -0.662024 -0.0511917 0
M  V30 5343 H 520.844 -1.99079 0.472073 0
M  V30 5344 H 520.854 -3.96094 -0.978434 0
M  V30 5345 H 519.529 -4.15602 0.157287 0
M  V30 5346 H 518.106 -3.40768 -1.51431 0
M  V30 5347 N 520.291 -0.0518155 -1.57515 0
M  V30 5348 C 521.221 0.920283 -2.146 0
M  V30 5349 C 522.202 1.32406 -1.06783 0
M  V30 5350 O 523.387 1.39866 -1.34726 0
M  V30 5351 C 520.517 2.1949 -2.6915 0
M  V30 5352 C 519.471 1.93116 -3.81956 0
M  V30 5353 C 518.797 3.27037 -4.23026 0
M  V30 5354 C 520.097 1.25225 -5.07066 0
M  V30 5355 H 521.791 0.444801 -2.96077 0
M  V30 5356 H 519.337 0.212508 -1.42423 0
M  V30 5357 H 521.29 2.87894 -3.07725 0
M  V30 5358 H 520.014 2.69244 -1.84865 0
M  V30 5359 H 518.673 1.27123 -3.43854 0
M  V30 5360 H 518.321 3.74595 -3.3569 0
M  V30 5361 H 518.021 3.10189 -4.99056 0
M  V30 5362 H 519.545 3.96673 -4.64202 0
M  V30 5363 H 520.959 1.83666 -5.43083 0
M  V30 5364 H 519.356 1.18702 -5.88243 0
M  V30 5365 H 520.426 0.228382 -4.84362 0
M  V30 5366 N 521.769 1.56035 0.221574 0
M  V30 5367 C 522.699 1.95434 1.2778 0
M  V30 5368 C 523.68 0.822564 1.48889 0
M  V30 5369 O 524.865 1.08486 1.61072 0
M  V30 5370 C 521.995 2.27102 2.62759 0
M  V30 5371 C 520.949 3.4277 2.56306 0
M  V30 5372 C 520.275 3.60043 3.95314 0
M  V30 5373 C 521.575 4.77742 2.11093 0
M  V30 5374 H 523.269 2.83912 0.950504 0
M  V30 5375 H 520.815 1.36596 0.455791 0
M  V30 5376 H 522.768 2.53256 3.36807 0
M  V30 5377 H 521.492 1.35478 2.97176 0
M  V30 5378 H 520.151 3.16664 1.84715 0
M  V30 5379 H 519.799 2.65794 4.27039 0
M  V30 5380 H 519.499 4.37841 3.91879 0
M  V30 5381 H 521.023 3.88545 4.71025 0
M  V30 5382 H 522.437 5.03102 2.74885 0
M  V30 5383 H 520.834 5.58823 2.18716 0
M  V30 5384 H 521.904 4.731 1.06321 0
M  V30 5385 N 523.247 -0.488276 1.49845 0
M  V30 5386 C 524.495 -1.23911 1.59657 0
M  V30 5387 C 524.816 -1.92816 0.291005 0
M  V30 5388 O 524.086 -1.83328 -0.690485 0
M  V30 5389 H 522.666 -0.460357 0.588286 0
M  V30 5390 H 525.328 -0.564794 1.86537 0
M  V30 5391 H 524.424 -1.99625 2.39909 0
M  V30 5392 N 524.725 -1.39134 -0.740242 0
M  V30 5393 C 525.95 -1.39518 -1.53459 0
M  V30 5394 C 526.375 0.00968883 -1.88098 0
M  V30 5395 O 525.733 0.995312 -1.51536 0
M  V30 5396 C 525.781 -2.26981 -2.802 0
M  V30 5397 O 524.885 -1.69609 -3.75908 0
M  V30 5398 H 524.226 -0.475328 -0.463637 0
M  V30 5399 H 526.756 -1.83064 -0.913717 0
M  V30 5400 H 526.766 -2.41309 -3.28989 0
M  V30 5401 H 525.441 -3.29081 -2.5432 0
M  V30 5402 H 524.018 -1.64495 -3.34658 0
M  V30 5403 N 526.204 0.969867 -1.24223 0
M  V30 5404 C 527.453 1.70687 -1.07466 0
M  V30 5405 C 527.766 1.91736 0.386861 0
M  V30 5406 O 528.972 2.62986 0.674581 0
M  V30 5407 C 527.428 3.07217 -1.87472 0
M  V30 5408 C 527.036 2.94018 -3.3802 0
M  V30 5409 C 528.78 3.84804 -1.79237 0
M  V30 5410 C 526.687 4.25844 -4.10379 0
M  V30 5411 H 525.617 0.640067 -0.398536 0
M  V30 5412 H 528.268 1.08092 -1.48285 0
M  V30 5413 H 526.65 3.70628 -1.39466 0
M  V30 5414 H 527.824 2.39632 -3.9359 0
M  V30 5415 H 526.139 2.29898 -3.47183 0
M  V30 5416 H 528.736 4.82417 -2.30603 0
M  V30 5417 H 529.079 4.09356 -0.757197 0
M  V30 5418 H 529.612 3.28115 -2.24912 0
M  V30 5419 H 526.351 4.06486 -5.14246 0
M  V30 5420 H 525.871 4.80054 -3.59594 0
M  V30 5421 H 527.55 4.94475 -4.17257 0
M  V30 5422 N 527.682 1.05563 1.17022 0
M  V30 5423 C 528.929 0.767937 1.87374 0
M  V30 5424 C 529.257 -0.705224 1.81265 0
M  V30 5425 O 528.512 -1.5318 1.21796 0
M  V30 5426 C 528.811 1.19849 3.36706 0
M  V30 5427 C 528.477 2.6745 3.63017 0
M  V30 5428 C 527.139 3.0777 3.69907 0
M  V30 5429 C 529.491 3.62811 3.74189 0
M  V30 5430 C 526.819 4.42307 3.85463 0
M  V30 5431 C 529.171 4.97087 3.91264 0
M  V30 5432 C 527.835 5.37055 3.96394 0
M  V30 5433 H 527.105 0.281008 0.68565 0
M  V30 5434 H 529.752 1.32339 1.38415 0
M  V30 5435 H 528.057 0.562096 3.87747 0
M  V30 5436 H 529.754 0.953038 3.8951 0
M  V30 5437 H 526.344 2.35228 3.58282 0
M  V30 5438 H 530.528 3.32798 3.68183 0
M  V30 5439 H 525.784 4.72769 3.87684 0
M  V30 5440 H 529.958 5.70869 3.9885 0
M  V30 5441 H 527.585 6.41308 4.082 0
M  V30 5442 N 529.16 -1.33526 0.837174 0
M  V30 5443 C 530.571 -1.80182 0.489017 0
M  V30 5444 C 530.922 -1.69285 -0.991826 0
M  V30 5445 O 530.047 -1.24113 -1.77271 0
M  V30 5446 C 530.642 -3.27149 0.880866 0
M  V30 5447 C 529.201 -3.71828 0.584872 0
M  V30 5448 C 528.348 -2.54974 1.09011 0
M  V30 5449 H 531.299 -1.21071 1.02603 0
M  V30 5450 H 531.32 -3.80024 0.190239 0
M  V30 5451 H 530.832 -3.35048 1.95869 0
M  V30 5452 H 528.933 -3.69457 -0.48295 0
M  V30 5453 H 529.046 -4.65366 1.13892 0
M  V30 5454 H 527.41 -2.4952 0.511047 0
M  V30 5455 H 528.193 -2.65637 2.17467 0
M  V30 5456 N 530.638 -0.59345 -1.46 0
M  V30 5457 C 531.571 0.182196 -2.27472 0
M  V30 5458 C 532.549 0.886901 -1.36282 0
M  V30 5459 O 533.733 0.898627 -1.65701 0
M  V30 5460 C 530.86 1.26236 -3.14296 0
M  V30 5461 C 529.906 0.662331 -4.21326 0
M  V30 5462 S 530.739 -0.519017 -5.32979 0
M  V30 5463 C 531.895 0.562086 -6.23371 0
M  V30 5464 H 532.128 -0.509056 -2.92909 0
M  V30 5465 H 529.661 -0.380607 -1.49635 0
M  V30 5466 H 531.619 1.88075 -3.64881 0
M  V30 5467 H 530.28 1.92562 -2.48151 0
M  V30 5468 H 529.473 1.47461 -4.81945 0
M  V30 5469 H 529.075 0.119381 -3.73809 0
M  V30 5470 H 531.367 1.44494 -6.61912 0
M  V30 5471 H 532.31 -0.00760776 -7.081 0
M  V30 5472 H 532.718 0.871061 -5.57739 0
M  V30 5473 N 532.116 1.54067 -0.331816 0
M  V30 5474 C 533.527 1.86059 0.15454 0
M  V30 5475 C 533.878 1.25331 1.50952 0
M  V30 5476 O 533.003 0.562441 2.08963 0
M  V30 5477 C 533.598 3.37581 0.287192 0
M  V30 5478 C 532.157 3.69493 0.717773 0
M  V30 5479 C 531.304 2.76863 -0.155569 0
M  V30 5480 H 534.255 1.48797 -0.55182 0
M  V30 5481 H 534.276 3.63744 1.11671 0
M  V30 5482 H 533.788 3.81751 -0.699131 0
M  V30 5483 H 531.889 3.3086 1.71354 0
M  V30 5484 H 532.002 4.76315 0.5158 0
M  V30 5485 H 530.366 2.51995 0.370213 0
M  V30 5486 H 531.149 3.23861 -1.13881 0
M  V30 5487 N 533.594 0.0601682 1.57485 0
M  V30 5488 C 535.01 -0.296422 1.56823 0
M  V30 5489 C 535.21 -1.70831 1.0686 0
M  V30 5490 O 534.266 -2.4174 0.729245 0
M  V30 5491 C 535.579 -0.116681 3.00474 0
M  V30 5492 C 537.127 -0.187103 3.1244 0
M  V30 5493 C 537.602 -0.035783 4.57986 0
M  V30 5494 N 539.093 -0.0917676 4.63109 0
M  V30 5495 C 539.828 0.00107251 5.734 0
M  V30 5496 N 539.324 0.146773 6.92645 0
M  V30 5497 N 541.117 -0.0551577 5.62073 0
M  V30 5498 H 533.268 0.983055 1.88281 0
M  V30 5499 H 535.531 0.382386 0.867459 0
M  V30 5500 H 535.237 0.85712 3.41096 0
M  V30 5501 H 535.111 -0.873929 3.66936 0
M  V30 5502 H 537.498 -1.15138 2.71712 0
M  V30 5503 H 537.579 0.601052 2.48638 0
M  V30 5504 H 537.223 0.925212 4.99402 0
M  V30 5505 H 537.153 -0.843196 5.19806 0
M  V30 5506 H 539.644 -0.203261 3.77353 0
M  V30 5507 H 539.957 0.210076 7.72514 0
M  V30 5508 H 538.302 0.181979 6.94762 0
M  V30 5509 H 541.493 -0.167605 4.678 0
M  V30 5510 H 541.666 0.020652 6.47997 0
M  V30 5511 N 535.072 -1.5615 -0.213296 0
M  V30 5512 C 536.318 -1.79812 -0.937849 0
M  V30 5513 C 536.651 -0.631201 -1.83656 0
M  V30 5514 O 535.926 0.369165 -1.90964 0
M  V30 5515 C 536.209 -3.13613 -1.76972 0
M  V30 5516 C 536.062 -4.40766 -0.89695 0
M  V30 5517 C 537.381 -3.43931 -2.7459 0
M  V30 5518 H 534.5 -0.654138 -0.339518 0
M  V30 5519 H 537.142 -1.88877 -0.20623 0
M  V30 5520 H 535.292 -3.06015 -2.39347 0
M  V30 5521 H 536.964 -4.60392 -0.289306 0
M  V30 5522 H 535.207 -4.33326 -0.202756 0
M  V30 5523 H 535.878 -5.30843 -1.51358 0
M  V30 5524 H 538.354 -3.5171 -2.22349 0
M  V30 5525 H 537.23 -4.38706 -3.29891 0
M  V30 5526 H 537.491 -2.6651 -3.52739 0
M  V30 5527 N 536.55 0.480323 -1.50102 0
M  V30 5528 C 537.799 1.22979 -1.59872 0
M  V30 5529 C 538.112 1.93282 -0.30022 0
M  V30 5530 O 539.318 2.70086 -0.276709 0
M  V30 5531 C 537.774 2.23408 -2.82164 0
M  V30 5532 C 537.382 1.5895 -4.18854 0
M  V30 5533 C 539.126 2.99055 -3.01275 0
M  V30 5534 C 537.033 2.57611 -5.32344 0
M  V30 5535 H 535.963 0.462707 -0.59533 0
M  V30 5536 H 538.614 0.501291 -1.7652 0
M  V30 5537 H 536.996 2.99511 -2.59055 0
M  V30 5538 H 538.17 0.887 -4.52182 0
M  V30 5539 H 536.485 0.956191 -4.05273 0
M  V30 5540 H 539.082 3.72876 -3.83233 0
M  V30 5541 H 539.425 3.57897 -2.12639 0
M  V30 5542 H 539.958 2.30066 -3.24522 0
M  V30 5543 H 536.697 2.03521 -6.23105 0
M  V30 5544 H 536.217 3.26041 -5.03445 0
M  V30 5545 H 537.896 3.19627 -5.62537 0
M  V30 5546 N 538.028 1.39524 0.732853 0
M  V30 5547 C 539.258 1.3994 1.51988 0
M  V30 5548 C 539.666 -0.00727973 1.89199 0
M  V30 5549 O 539.009 -0.989521 1.54771 0
M  V30 5550 C 539.071 2.21026 2.83527 0
M  V30 5551 C 538.735 3.69633 2.68738 0
M  V30 5552 C 539.732 4.62665 2.37143 0
M  V30 5553 C 537.417 4.13244 2.85542 0
M  V30 5554 C 539.411 5.97291 2.22536 0
M  V30 5555 C 537.098 5.47945 2.70554 0
M  V30 5556 C 538.096 6.39783 2.39097 0
M  V30 5557 O 537.784 7.72002 2.24204 0
M  V30 5558 H 537.516 0.479795 0.476206 0
M  V30 5559 H 540.07 1.8399 0.913054 0
M  V30 5560 H 538.3 1.71728 3.46477 0
M  V30 5561 H 539.989 2.13594 3.45156 0
M  V30 5562 H 540.755 4.30272 2.2381 0
M  V30 5563 H 536.634 3.42094 3.09019 0
M  V30 5564 H 540.178 6.68939 1.97905 0
M  V30 5565 H 536.075 5.79928 2.83466 0
M  V30 5566 H 536.843 7.8275 2.39258 0
M  V30 5567 N 539.506 -0.963266 1.24736 0
M  V30 5568 C 540.469 -2.04013 1.04457 0
M  V30 5569 C 541.469 -1.608 0.000335555 0
M  V30 5570 O 542.659 -1.72515 0.241719 0
M  V30 5571 C 539.791 -3.35858 0.584162 0
M  V30 5572 H 540.984 -2.23436 2.00041 0
M  V30 5573 H 538.537 -1.13914 1.07021 0
M  V30 5574 H 539.272 -3.22128 -0.374673 0
M  V30 5575 H 539.057 -3.68568 1.3379 0
M  V30 5576 H 540.547 -4.1502 0.463451 0
M  V30 5577 N 540.985 -1.06182 -1.16461 0
M  V30 5578 C 541.918 -0.615859 -2.19733 0
M  V30 5579 C 542.896 0.360766 -1.58547 0
M  V30 5580 O 544.08 0.270009 -1.86556 0
M  V30 5581 C 541.207 0.097312 -3.3856 0
M  V30 5582 C 540.253 -0.835889 -4.18229 0
M  V30 5583 S 541.086 -2.33052 -4.82128 0
M  V30 5584 C 542.242 -1.62881 -6.04335 0
M  V30 5585 H 542.475 -1.49079 -2.57221 0
M  V30 5586 H 540.008 -0.874692 -1.27234 0
M  V30 5587 H 541.966 0.502563 -4.07412 0
M  V30 5588 H 540.627 0.948418 -2.99439 0
M  V30 5589 H 539.82 -0.283426 -5.03202 0
M  V30 5590 H 539.422 -1.18097 -3.54865 0
M  V30 5591 H 541.714 -0.933764 -6.71034 0
M  V30 5592 H 542.657 -2.45641 -6.64128 0
M  V30 5593 H 543.065 -1.11189 -5.53441 0
M  V30 5594 N 542.463 1.3308 -0.844243 0
M  V30 5595 C 543.426 2.27403 -0.286485 0
M  V30 5596 C 544.426 1.51179 0.547872 0
M  V30 5597 O 545.616 1.70421 0.360886 0
M  V30 5598 C 542.748 3.35653 0.595813 0
M  V30 5599 H 543.941 2.78248 -1.11885 0
M  V30 5600 H 541.494 1.43574 -0.617749 0
M  V30 5601 H 542.229 2.90058 1.4504 0
M  V30 5602 H 542.014 3.921 -0.00125994 0
M  V30 5603 H 543.504 4.05958 0.979168 0
M  V30 5604 N 543.941 0.601185 1.45683 0
M  V30 5605 C 544.851 -0.123395 2.34275 0
M  V30 5606 C 545.867 -0.86702 1.5086 0
M  V30 5607 O 547.043 -0.826049 1.8368 0
M  V30 5608 C 544.108 -1.11237 3.2837 0
M  V30 5609 C 543.169 -0.371405 4.2769 0
M  V30 5610 C 542.402 -1.31327 5.1729 0
M  V30 5611 O 542.625 -2.55078 5.10188 0
M  V30 5612 O 541.559 -0.813811 5.96373 0
M  V30 5613 H 545.385 0.604483 2.97623 0
M  V30 5614 H 542.97 0.361477 1.44961 0
M  V30 5615 H 544.852 -1.68214 3.8637 0
M  V30 5616 H 543.527 -1.82139 2.67595 0
M  V30 5617 H 542.434 0.24067 3.73325 0
M  V30 5618 H 543.767 0.296998 4.91303 0
M  V30 5619 N 545.419 -1.53889 0.339982 0
M  V30 5620 C 546.696 -1.93084 -0.312719 0
M  V30 5621 C 547.076 -1.2712 -1.68534 0
M  V30 5622 O 546.424 -0.420835 -2.24591 0
M  V30 5623 C 546.634 -3.4683 -0.388558 0
M  V30 5624 C 547.982 -4.19732 -0.641088 0
M  V30 5625 O 549.006 -3.53075 -0.470818 0
M  V30 5626 O 547.865 -5.3781 -0.970685 0
M  V30 5627 H 544.959 -0.806784 -0.18174 0
M  V30 5628 H 547.505 -1.65137 0.390898 0
M  V30 5629 H 546.277 -3.87055 0.574821 0
M  V30 5630 H 545.9 -3.80933 -1.1391 0
M  V30 5631 N 546.897 -0.0685191 -1.57451 0
M  V30 5632 C 548.145 0.60016 -1.92983 0
M  V30 5633 C 548.466 1.70348 -0.949028 0
M  V30 5634 O 547.736 1.959 0.00335647 0
M  V30 5635 H 546.316 0.224682 -0.712409 0
M  V30 5636 H 548.978 -0.125605 -1.94495 0
M  V30 5637 H 548.074 1.02759 -2.94698 0
M  V30 5638 N 548.375 1.56261 0.205012 0
M  V30 5639 C 549.305 1.96779 1.257 0
M  V30 5640 C 550.286 0.838309 1.48008 0
M  V30 5641 O 551.471 1.10189 1.59913 0
M  V30 5642 C 548.601 2.29876 2.60335 0
M  V30 5643 C 547.555 3.45469 2.52656 0
M  V30 5644 C 546.881 3.64215 3.91473 0
M  V30 5645 C 548.181 4.79954 2.06014 0
M  V30 5646 H 549.875 2.84904 0.920338 0
M  V30 5647 H 547.421 1.37072 0.441277 0
M  V30 5648 H 549.374 2.56814 3.34102 0
M  V30 5649 H 548.098 1.38622 2.95722 0
M  V30 5650 H 546.757 3.18605 1.81345 0
M  V30 5651 H 546.405 2.70309 4.24196 0
M  V30 5652 H 546.105 4.41973 3.87213 0
M  V30 5653 H 547.629 3.93519 4.66878 0
M  V30 5654 H 549.043 5.05989 2.69533 0
M  V30 5655 H 547.44 5.61111 2.12777 0
M  V30 5656 H 548.51 4.74201 1.01297 0
M  V30 5657 N 549.853 -0.472356 1.50355 0
M  V30 5658 C 550.783 -1.57859 1.72055 0
M  V30 5659 C 551.764 -1.60283 0.569505 0
M  V30 5660 O 552.949 -1.7657 0.808503 0
M  V30 5661 C 550.079 -2.96191 1.81351 0
M  V30 5662 C 549.033 -3.08633 2.96529 0
M  V30 5663 C 548.359 -4.486 2.90968 0
M  V30 5664 C 549.659 -2.85969 4.37057 0
M  V30 5665 H 551.353 -1.39953 2.64676 0
M  V30 5666 H 548.899 -0.671846 1.27367 0
M  V30 5667 H 550.852 -3.73507 1.95117 0
M  V30 5668 H 549.576 -3.15251 0.853502 0
M  V30 5669 H 548.235 -2.33749 2.82413 0
M  V30 5670 H 547.883 -4.64577 1.92815 0
M  V30 5671 H 547.583 -4.57861 3.68289 0
M  V30 5672 H 549.107 -5.27938 3.0678 0
M  V30 5673 H 550.521 -3.53036 4.51706 0
M  V30 5674 H 548.918 -3.06677 5.15819 0
M  V30 5675 H 549.988 -1.81838 4.49514 0
M  V30 5676 N 551.331 -1.39911 -0.725443 0
M  V30 5677 C 552.578 -1.37654 -1.48518 0
M  V30 5678 C 552.906 0.0243982 -1.94485 0
M  V30 5679 O 552.161 1.00708 -1.67799 0
M  V30 5680 C 552.46 -2.30368 -2.7325 0
M  V30 5681 C 552.126 -3.77817 -2.461 0
M  V30 5682 C 550.788 -4.17991 -2.38405 0
M  V30 5683 C 553.14 -4.71036 -2.23103 0
M  V30 5684 C 550.468 -5.49433 -2.05768 0
M  V30 5685 C 552.82 -6.02766 -1.9198 0
M  V30 5686 C 551.484 -6.41993 -1.82761 0
M  V30 5687 H 550.754 -0.503713 -0.543465 0
M  V30 5688 H 553.401 -1.7249 -0.831822 0
M  V30 5689 H 551.706 -1.88683 -3.43375 0
M  V30 5690 H 553.403 -2.2591 -3.31309 0
M  V30 5691 H 549.993 -3.45982 -2.52972 0
M  V30 5692 H 554.177 -4.40823 -2.2801 0
M  V30 5693 H 549.433 -5.78738 -1.9716 0
M  V30 5694 H 553.607 -6.74519 -1.73197 0
M  V30 5695 H 551.234 -7.43761 -1.57237 0
M  V30 5696 N 552.809 0.956637 -1.25245 0
M  V30 5697 C 553.756 2.053 -1.05454 0
M  V30 5698 C 554.726 1.66062 0.0356889 0
M  V30 5699 O 555.911 1.90415 -0.121099 0
M  V30 5700 C 553.051 3.38391 -0.677191 0
M  V30 5701 C 552.164 3.90758 -1.84206 0
M  V30 5702 C 551.299 5.12165 -1.40926 0
M  V30 5703 C 550.338 5.56757 -2.54338 0
M  V30 5704 N 549.475 6.69376 -2.11848 0
M  V30 5705 H 554.315 2.21562 -1.99284 0
M  V30 5706 H 551.852 1.08578 -0.992434 0
M  V30 5707 H 553.81 4.1488 -0.43938 0
M  V30 5708 H 552.44 3.22021 0.224127 0
M  V30 5709 H 551.492 3.10808 -2.19323 0
M  V30 5710 H 552.804 4.19802 -2.69383 0
M  V30 5711 H 551.958 5.96065 -1.13098 0
M  V30 5712 H 550.697 4.84832 -0.528175 0
M  V30 5713 H 549.702 4.71423 -2.82913 0
M  V30 5714 H 550.927 5.861 -3.43022 0
M  V30 5715 H 548.873 6.43756 -1.26153 0
M  V30 5716 H 548.79 6.97927 -2.90574 0
M  V30 5717 H 550.058 7.5669 -1.87191 0
M  V30 5718 N 554.287 1.06798 1.15896 0
M  V30 5719 C 555.527 0.797041 1.8822 0
M  V30 5720 C 555.891 -0.664549 1.80133 0
M  V30 5721 O 557.092 -1.0503 2.47431 0
M  V30 5722 C 555.363 1.28431 3.33527 0
M  V30 5723 S 556.922 1.14319 4.23647 0
M  V30 5724 H 553.74 0.288988 0.649621 0
M  V30 5725 H 556.342 1.36594 1.39865 0
M  V30 5726 H 555.046 2.34286 3.36954 0
M  V30 5727 H 554.577 0.710371 3.86933 0
M  V30 5728 H 556.592 0.0772467 4.9614 0
M  V30 5729 N 555.766 -1.3263 0.851289 0
M  V30 5730 C 556.696 -2.31449 0.308771 0
M  V30 5731 C 557.677 -1.59531 -0.590255 0
M  V30 5732 O 558.862 -1.87351 -0.511205 0
M  V30 5733 C 555.992 -3.43586 -0.506548 0
M  V30 5734 C 554.946 -4.26963 0.297753 0
M  V30 5735 C 554.272 -5.30831 -0.642094 0
M  V30 5736 C 555.572 -4.99643 1.52166 0
M  V30 5737 H 557.266 -2.77074 1.13447 0
M  V30 5738 H 554.812 -1.33207 0.546971 0
M  V30 5739 H 556.765 -4.11754 -0.896474 0
M  V30 5740 H 555.489 -2.96681 -1.36558 0
M  V30 5741 H 554.148 -3.60437 0.669391 0
M  V30 5742 H 553.796 -4.8018 -1.49788 0
M  V30 5743 H 553.496 -5.87501 -0.107968 0
M  V30 5744 H 555.02 -6.01862 -1.02927 0
M  V30 5745 H 556.434 -5.6051 1.20421 0
M  V30 5746 H 554.831 -5.66022 1.99347 0
M  V30 5747 H 555.901 -4.27701 2.28474 0
M  V30 5748 N 557.244 -0.608902 -1.45362 0
M  V30 5749 C 558.207 0.0992563 -2.28985 0
M  V30 5750 C 559.207 0.793841 -1.39838 0
M  V30 5751 O 560.397 0.641804 -1.61946 0
M  V30 5752 C 557.529 1.15073 -3.20891 0
M  V30 5753 H 558.722 -0.635964 -2.93079 0
M  V30 5754 H 556.275 -0.368007 -1.51906 0
M  V30 5755 H 557.01 1.91667 -2.616 0
M  V30 5756 H 556.795 0.656867 -3.86559 0
M  V30 5757 H 558.285 1.64665 -3.83765 0
M  V30 5758 N 558.722 1.53707 -0.348139 0
M  V30 5759 C 559.654 2.22725 0.540946 0
M  V30 5760 C 560.667 1.2354 1.06027 0
M  V30 5761 O 561.856 1.49867 0.96964 0
M  V30 5762 C 558.956 2.89756 1.75768 0
M  V30 5763 C 558.129 4.15297 1.37285 0
M  V30 5764 C 557.188 4.65697 2.44976 0
M  V30 5765 O 556.214 5.29798 2.08092 0
M  V30 5766 N 557.416 4.42017 3.763 0
M  V30 5767 H 560.181 2.99658 -0.0501592 0
M  V30 5768 H 557.742 1.60979 -0.17248 0
M  V30 5769 H 559.734 3.20388 2.47252 0
M  V30 5770 H 558.304 2.16382 2.25605 0
M  V30 5771 H 557.524 3.9116 0.488584 0
M  V30 5772 H 558.812 4.96948 1.09179 0
M  V30 5773 H 558.21 3.9076 4.09051 0
M  V30 5774 H 556.767 4.77242 4.4394 0
M  V30 5775 N 560.2 0.0768682 1.57412 0
M  V30 5776 C 561.449 -0.590679 1.92857 0
M  V30 5777 C 561.762 -1.70461 0.959293 0
M  V30 5778 O 562.968 -2.43207 1.20675 0
M  V30 5779 C 561.424 -1.10204 3.42612 0
M  V30 5780 C 561.032 -0.0188447 4.47996 0
M  V30 5781 C 562.776 -1.74336 3.87049 0
M  V30 5782 C 560.683 -0.544536 5.88888 0
M  V30 5783 H 559.613 -0.224411 0.71983 0
M  V30 5784 H 562.264 0.149924 1.82887 0
M  V30 5785 H 560.646 -1.89577 3.47673 0
M  V30 5786 H 561.82 0.755936 4.54557 0
M  V30 5787 H 560.135 0.526555 4.13057 0
M  V30 5788 H 562.732 -2.14708 4.89699 0
M  V30 5789 H 563.075 -2.60537 3.24694 0
M  V30 5790 H 563.608 -1.01577 3.84613 0
M  V30 5791 H 560.347 0.280426 6.549 0
M  V30 5792 H 559.867 -1.28673 5.85836 0
M  V30 5793 H 561.546 -1.01933 6.3892 0
M  V30 5794 N 561.678 -1.56367 -0.196722 0
M  V30 5795 C 562.626 -1.95304 -1.2633 0
M  V30 5796 C 563.62 -0.838252 -1.47206 0
M  V30 5797 O 564.826 -1.02325 -1.48087 0
M  V30 5798 H 561.201 -0.621013 -0.424083 0
M  V30 5799 H 563.172 -2.84254 -0.907879 0
M  V30 5800 C 561.921 -2.3074 -2.60104 0
M  V30 5801 H 561.244 -3.16047 -2.44856 0
M  V30 5802 H 562.684 -2.61849 -3.33484 0
M  V30 5803 C 561.143 -1.14143 -3.16975 0
M  V30 5804 O 561.673 -0.415602 -3.99544 0
M  V30 5805 N 559.879 -0.91867 -2.75697 0
M  V30 5806 H 559.426 -1.51065 -2.08656 0
M  V30 5807 H 559.384 -0.140321 -3.14087 0
M  V30 5808 N 563.156 0.464375 -1.50603 0
M  V30 5809 C 564.381 1.24372 -1.65971 0
M  V30 5810 C 564.806 1.84901 -0.345453 0
M  V30 5811 O 564.164 1.67596 0.691457 0
M  V30 5812 C 564.212 2.32331 -2.7578 0
M  V30 5813 O 563.316 3.37146 -2.375 0
M  V30 5814 H 562.657 0.365604 -0.554283 0
M  V30 5815 H 565.187 0.55183 -1.97018 0
M  V30 5816 H 565.197 2.77539 -2.99059 0
M  V30 5817 H 563.872 1.87648 -3.71162 0
M  V30 5818 H 562.449 2.97602 -2.24694 0
M  V30 5819 N 564.634 1.40294 0.718013 0
M  V30 5820 C 565.581 1.40367 1.8321 0
M  V30 5821 C 566.551 0.260952 1.64037 0
M  V30 5822 O 567.736 0.458648 1.85205 0
M  V30 5823 C 564.876 1.26965 3.20895 0
M  V30 5824 C 563.989 2.50922 3.51656 0
M  V30 5825 C 563.124 2.29981 4.78834 0
M  V30 5826 C 562.163 3.49527 5.02491 0
M  V30 5827 N 561.3 3.27796 6.20882 0
M  V30 5828 H 566.14 2.35593 1.82482 0
M  V30 5829 H 563.677 1.17012 0.891444 0
M  V30 5830 H 565.635 1.17202 4.00399 0
M  V30 5831 H 564.265 0.353591 3.20858 0
M  V30 5832 H 563.317 2.71223 2.66725 0
M  V30 5833 H 564.629 3.39913 3.65048 0
M  V30 5834 H 563.783 2.17558 5.66351 0
M  V30 5835 H 562.522 1.38411 4.67647 0
M  V30 5836 H 561.527 3.6243 4.1343 0
M  V30 5837 H 562.752 4.42021 5.15553 0
M  V30 5838 H 560.698 2.38906 6.1095 0
M  V30 5839 H 560.615 4.10351 6.34939 0
M  V30 5840 H 561.883 3.19101 7.11193 0
M  V30 5841 N 566.112 -0.949982 1.2575 0
M  V30 5842 C 567.34 -1.72972 1.13527 0
M  V30 5843 C 567.755 -1.8623 -0.310453 0
M  V30 5844 O 567.112 -1.36336 -1.2132 0
M  V30 5845 C 567.163 -3.14108 1.78936 0
M  V30 5846 O 566.884 -3.01493 3.17858 0
M  V30 5847 C 568.385 -4.08338 1.72554 0
M  V30 5848 H 565.605 -0.541864 0.395758 0
M  V30 5849 H 568.149 -1.19151 1.66202 0
M  V30 5850 H 566.304 -3.64858 1.30221 0
M  V30 5851 H 566.718 -3.90559 3.50092 0
M  V30 5852 H 568.192 -5.04963 2.22973 0
M  V30 5853 H 568.669 -4.33742 0.690251 0
M  V30 5854 H 569.275 -3.63506 2.2078 0
M  V30 5855 N 567.59 -1.07411 -1.15328 0
M  V30 5856 C 568.537 -0.694995 -2.20087 0
M  V30 5857 C 569.507 0.313904 -1.63107 0
M  V30 5858 O 570.692 0.200216 -1.89747 0
M  V30 5859 C 567.832 -0.0996218 -3.44956 0
M  V30 5860 C 566.945 -1.16007 -4.16133 0
M  V30 5861 C 566.08 -0.529636 -5.28553 0
M  V30 5862 C 565.119 -1.57283 -5.91548 0
M  V30 5863 N 564.256 -0.964932 -6.95438 0
M  V30 5864 H 569.096 -1.5927 -2.51867 0
M  V30 5865 H 566.633 -0.796115 -1.23695 0
M  V30 5866 H 568.591 0.263197 -4.16369 0
M  V30 5867 H 567.221 0.761435 -3.13691 0
M  V30 5868 H 566.273 -1.64045 -3.4321 0
M  V30 5869 H 567.585 -1.95101 -4.59061 0
M  V30 5870 H 566.739 -0.114487 -6.06592 0
M  V30 5871 H 565.478 0.29307 -4.86819 0
M  V30 5872 H 564.483 -1.99775 -5.12221 0
M  V30 5873 H 565.708 -2.39783 -6.35359 0
M  V30 5874 H 563.654 -0.16314 -6.55797 0
M  V30 5875 H 563.571 -1.69311 -7.36797 0
M  V30 5876 H 564.839 -0.575305 -7.77374 0
M  V30 5877 N 569.068 1.32177 -0.85831 0
M  V30 5878 C 570.296 2.01313 -0.477582 0
M  V30 5879 C 570.711 1.6449 0.926736 0
M  V30 5880 O 570.068 0.868096 1.60531 0
M  V30 5881 C 570.119 3.56293 -0.611337 0
M  V30 5882 O 569.84 3.91794 -1.96034 0
M  V30 5883 C 571.341 4.42702 -0.230093 0
M  V30 5884 H 568.561 0.644323 -0.187322 0
M  V30 5885 H 571.105 1.68674 -1.15626 0
M  V30 5886 H 569.26 3.87395 0.0196494 0
M  V30 5887 H 569.674 4.86513 -1.95973 0
M  V30 5888 H 571.148 5.50727 -0.374674 0
M  V30 5889 H 571.625 4.3129 0.829779 0
M  V30 5890 H 572.231 4.16997 -0.836302 0
M  V30 5891 N 570.547 0.616602 1.45037 0
M  V30 5892 C 571.958 0.199359 1.85633 0
M  V30 5893 C 572.309 -1.24588 1.51566 0
M  V30 5894 O 571.434 -1.94594 0.94668 0
M  V30 5895 C 572.029 0.355033 3.36935 0
M  V30 5896 C 570.588 -0.00758748 3.76399 0
M  V30 5897 C 569.735 0.675256 2.68953 0
M  V30 5898 H 572.686 0.822708 1.3571 0
M  V30 5899 H 572.707 -0.410201 3.78282 0
M  V30 5900 H 572.219 1.40699 3.61698 0
M  V30 5901 H 570.32 -1.05837 3.57252 0
M  V30 5902 H 570.433 0.392346 4.77491 0
M  V30 5903 H 568.797 0.111992 2.54454 0
M  V30 5904 H 569.58 1.72952 2.96551 0
M  V30 5905 N 572.025 -1.5352 0.356285 0
M  V30 5906 C 573.274 -2.00298 -0.237373 0
M  V30 5907 C 573.587 -1.24784 -1.50627 0
M  V30 5908 O 574.793 -1.62103 -2.17795 0
M  V30 5909 C 573.249 -3.56771 -0.473545 0
M  V30 5910 C 572.857 -4.41154 0.780183 0
M  V30 5911 C 574.601 -4.1193 -1.02537 0
M  V30 5912 C 572.508 -5.89161 0.514108 0
M  V30 5913 H 571.438 -0.748307 -0.092478 0
M  V30 5914 H 574.089 -1.77283 0.473588 0
M  V30 5915 H 572.471 -3.75902 -1.24553 0
M  V30 5916 H 573.645 -4.33797 1.55425 0
M  V30 5917 H 571.96 -3.97052 1.25455 0
M  V30 5918 H 574.557 -5.20133 -1.2396 0
M  V30 5919 H 574.9 -3.65943 -1.98473 0
M  V30 5920 H 575.433 -3.96561 -0.313775 0
M  V30 5921 H 572.172 -6.39408 1.44355 0
M  V30 5922 H 571.692 -5.9939 -0.221632 0
M  V30 5923 H 573.371 -6.46857 0.136122 0
M  V30 5924 N 573.503 -0.0852151 -1.57369 0
M  V30 5925 C 574.752 0.580443 -1.93168 0
M  V30 5926 C 575.065 1.6995 -0.968319 0
M  V30 5927 O 576.271 2.42564 -1.21963 0
M  V30 5928 C 574.727 1.08386 -3.43192 0
M  V30 5929 C 574.335 -0.00491388 -4.48 0
M  V30 5930 C 576.079 1.72281 -3.87968 0
M  V30 5931 C 573.986 0.513299 -5.89168 0
M  V30 5932 H 572.916 0.22059 -0.72101 0
M  V30 5933 H 575.567 -0.159621 -1.82804 0
M  V30 5934 H 573.949 1.8773 -3.48674 0
M  V30 5935 H 575.123 -0.780032 -4.5415 0
M  V30 5936 H 573.438 -0.548453 -4.12772 0
M  V30 5937 H 576.035 2.12108 -4.9083 0
M  V30 5938 H 576.378 2.58811 -3.26071 0
M  V30 5939 H 576.911 0.995359 -3.85146 0
M  V30 5940 H 573.65 -0.315153 -6.54742 0
M  V30 5941 H 573.17 1.25564 -5.8651 0
M  V30 5942 H 574.849 0.985433 -6.39451 0
M  V30 5943 N 574.981 1.5647 0.188427 0
M  V30 5944 C 575.944 1.9421 1.21718 0
M  V30 5945 C 576.944 0.823901 1.38089 0
M  V30 5946 O 578.134 1.09122 1.35787 0
M  V30 5947 C 575.266 2.22197 2.58537 0
M  V30 5948 H 576.459 2.86252 0.894418 0
M  V30 5949 H 574.012 1.50263 0.430211 0
M  V30 5950 H 574.747 1.32814 2.95856 0
M  V30 5951 H 574.532 3.03688 2.48025 0
M  V30 5952 H 576.022 2.52376 3.3271 0
M  V30 5953 N 576.459 -0.456382 1.50847 0
M  V30 5954 C 577.687 -1.23026 1.66349 0
M  V30 5955 C 578.102 -1.85473 0.352868 0
M  V30 5956 O 577.459 -1.69885 -0.666739 0
M  V30 5957 C 577.51 -2.32827 2.76539 0
M  V30 5958 O 577.231 -1.72938 4.02522 0
M  V30 5959 C 578.732 -3.23448 3.03144 0
M  V30 5960 H 575.952 -0.371527 0.558756 0
M  V30 5961 H 578.496 -0.543082 1.97157 0
M  V30 5962 H 576.651 -2.97294 2.48384 0
M  V30 5963 H 577.065 -2.45357 4.63573 0
M  V30 5964 H 578.539 -3.96669 3.83872 0
M  V30 5965 H 579.016 -3.83094 2.14793 0
M  V30 5966 H 579.622 -2.64702 3.32886 0
M  V30 5967 N 577.937 -1.40673 -0.710563 0
M  V30 5968 C 578.867 -1.44095 -1.83736 0
M  V30 5969 C 579.848 -0.301286 -1.67411 0
M  V30 5970 O 581.033 -0.510618 -1.87367 0
M  V30 5971 C 578.163 -1.30773 -3.21738 0
M  V30 5972 C 577.117 -2.42395 -3.52745 0
M  V30 5973 C 576.443 -2.14147 -4.89944 0
M  V30 5974 C 577.743 -3.84738 -3.53234 0
M  V30 5975 H 579.437 -2.38396 -1.81129 0
M  V30 5976 H 576.983 -1.14746 -0.870017 0
M  V30 5977 H 578.936 -1.31783 -4.00264 0
M  V30 5978 H 577.66 -0.329507 -3.24934 0
M  V30 5979 H 576.319 -2.40643 -2.76562 0
M  V30 5980 H 575.967 -1.14703 -4.89747 0
M  V30 5981 H 575.667 -2.88934 -5.11655 0
M  V30 5982 H 577.191 -2.16848 -5.70797 0
M  V30 5983 H 578.605 -3.88286 -4.2179 0
M  V30 5984 H 577.002 -4.59085 -3.86473 0
M  V30 5985 H 578.072 -4.13962 -2.52514 0
M  V30 5986 N 579.415 0.9433 -1.26252 0
M  V30 5987 C 580.64 1.72898 -1.14547 0
M  V30 5988 C 581.065 1.85761 0.295743 0
M  V30 5989 O 580.423 1.3463 1.21427 0
M  V30 5990 C 580.471 3.11471 -1.8171 0
M  V30 5991 O 579.575 3.97336 -1.10445 0
M  V30 5992 H 578.916 0.530555 -0.399259 0
M  V30 5993 H 581.446 1.18159 -1.67032 0
M  V30 5994 H 581.456 3.61872 -1.88449 0
M  V30 5995 H 580.131 3.01425 -2.86558 0
M  V30 5996 H 578.708 3.55788 -1.11666 0
M  V30 5997 N 580.893 1.08022 1.14757 0
M  V30 5998 C 582.118 0.82895 1.90114 0
M  V30 5999 C 582.543 -0.612772 1.77839 0
M  V30 6000 O 581.901 -1.42895 1.11583 0
M  V30 6001 C 581.949 1.25062 3.38219 0
M  V30 6002 O 581.053 0.400119 4.10454 0
M  V30 6003 H 580.394 0.301412 0.591648 0
M  V30 6004 H 582.924 1.44062 1.45284 0
M  V30 6005 H 582.934 1.22977 3.89025 0
M  V30 6006 H 581.609 2.30067 3.46471 0
M  V30 6007 H 580.186 0.484052 3.69745 0
M  V30 6008 N 582.371 -1.3172 0.865308 0
M  V30 6009 C 583.619 -1.96487 0.472995 0
M  V30 6010 C 583.94 -1.68761 -0.976975 0
M  V30 6011 O 583.21 -1.00051 -1.68424 0
M  V30 6012 H 581.79 -0.726947 0.171922 0
M  V30 6013 H 584.452 -1.60612 1.10407 0
M  V30 6014 H 583.548 -3.0574 0.62687 0
M  V30 6015 N 583.85 -0.624285 -1.44708 0
M  V30 6016 C 584.812 0.0749638 -2.29077 0
M  V30 6017 C 585.812 0.778965 -1.40673 0
M  V30 6018 O 587.003 0.624591 -1.62618 0
M  V30 6019 C 584.135 1.11663 -3.22094 0
M  V30 6020 H 585.327 -0.667013 -2.92388 0
M  V30 6021 H 582.88 -0.384098 -1.51507 0
M  V30 6022 H 583.615 1.88881 -2.63618 0
M  V30 6023 H 583.401 0.61583 -3.87234 0
M  V30 6024 H 584.891 1.60585 -3.8549 0
M  V30 6025 N 585.328 1.53329 -0.364422 0
M  V30 6026 C 586.574 2.01537 0.225969 0
M  V30 6027 C 586.907 1.25128 1.48515 0
M  V30 6028 O 586.182 0.344653 1.91422 0
M  V30 6029 C 586.465 3.56339 0.519092 0
M  V30 6030 C 586.318 4.43441 -0.753639 0
M  V30 6031 C 587.637 4.19833 1.32015 0
M  V30 6032 H 584.756 0.732573 0.0806548 0
M  V30 6033 H 587.398 1.83597 -0.489084 0
M  V30 6034 H 585.548 3.71756 1.12825 0
M  V30 6035 H 587.22 4.39823 -1.39116 0
M  V30 6036 H 585.463 4.11457 -1.37424 0
M  V30 6037 H 586.134 5.49699 -0.503517 0
M  V30 6038 H 588.61 4.08242 0.804859 0
M  V30 6039 H 587.486 5.28177 1.49399 0
M  V30 6040 H 587.747 3.75821 2.32832 0
M  V30 6041 N 586.806 0.0935595 1.57322 0
M  V30 6042 C 587.769 -0.851426 2.12799 0
M  V30 6043 C 588.769 -1.21187 1.0569 0
M  V30 6044 O 589.959 -1.14156 1.31583 0
M  V30 6045 C 587.091 -2.14779 2.64731 0
M  V30 6046 H 588.284 -0.369733 2.97612 0
M  V30 6047 H 585.837 -0.155417 1.55525 0
M  V30 6048 H 586.572 -2.67437 1.83434 0
M  V30 6049 H 586.357 -1.89907 3.43042 0
M  V30 6050 H 587.847 -2.82383 3.07651 0
M  V30 6051 N 588.284 -1.56567 -0.180126 0
M  V30 6052 C 589.247 -1.94852 -1.20686 0
M  V30 6053 C 590.247 -0.831212 -1.3765 0
M  V30 6054 O 591.437 -1.09841 -1.35206 0
M  V30 6055 C 588.569 -2.23565 -2.57355 0
M  V30 6056 H 589.762 -2.86722 -0.879225 0
M  V30 6057 H 587.315 -1.50489 -0.422237 0
M  V30 6058 H 588.05 -1.34381 -2.95148 0
M  V30 6059 H 587.835 -3.04999 -2.46411 0
M  V30 6060 H 589.325 -2.54137 -3.31367 0
M  V30 6061 N 589.762 0.448376 -1.51087 0
M  V30 6062 C 590.692 1.55102 -1.74544 0
M  V30 6063 C 591.673 1.59357 -0.594932 0
M  V30 6064 O 592.858 1.75261 -0.836491 0
M  V30 6065 C 589.988 2.93268 -1.86041 0
M  V30 6066 C 588.942 3.03877 -3.01402 0
M  V30 6067 C 588.268 4.43914 -2.98068 0
M  V30 6068 C 589.568 2.7898 -4.41551 0
M  V30 6069 H 591.262 1.35724 -2.66869 0
M  V30 6070 H 588.808 0.651498 -1.28419 0
M  V30 6071 H 590.761 3.70356 -2.01034 0
M  V30 6072 H 589.485 3.13853 -0.903548 0
M  V30 6073 H 588.144 2.29227 -2.86096 0
M  V30 6074 H 587.792 4.6145 -2.00182 0
M  V30 6075 H 587.492 4.51944 -3.75527 0
M  V30 6076 H 589.016 5.22991 -3.1514 0
M  V30 6077 H 590.43 3.45805 -4.57265 0
M  V30 6078 H 588.827 2.98431 -5.20633 0
M  V30 6079 H 589.897 1.74663 -4.5235 0
M  V30 6080 N 591.24 1.41047 0.703093 0
M  V30 6081 C 592.173 1.36713 1.82715 0
M  V30 6082 C 593.151 0.235533 1.60885 0
M  V30 6083 O 594.335 0.421227 1.83733 0
M  V30 6084 C 591.462 1.13069 3.1927 0
M  V30 6085 C 590.508 2.28846 3.59905 0
M  V30 6086 S 591.341 3.91297 3.65578 0
M  V30 6087 C 592.497 3.69941 5.04871 0
M  V30 6088 H 592.73 2.31838 1.86114 0
M  V30 6089 H 590.263 1.27481 0.871083 0
M  V30 6090 H 592.221 1.00113 3.98105 0
M  V30 6091 H 590.882 0.195763 3.13489 0
M  V30 6092 H 590.075 2.07977 4.59088 0
M  V30 6093 H 589.677 2.3817 2.88359 0
M  V30 6094 H 591.969 3.29181 5.92154 0
M  V30 6095 H 592.912 4.68699 5.30779 0
M  V30 6096 H 593.32 3.03369 4.76054 0
M  V30 6097 N 592.718 -0.936591 1.26751 0
M  V30 6098 C 593.681 -2.01752 1.08761 0
M  V30 6099 C 594.681 -1.60763 0.0344435 0
M  V30 6100 O 595.871 -1.71963 0.278258 0
M  V30 6101 C 593.003 -3.34543 0.655271 0
M  V30 6102 H 594.196 -2.19143 2.04735 0
M  V30 6103 H 591.749 -1.11618 1.09413 0
M  V30 6104 H 592.484 -3.22851 -0.30626 0
M  V30 6105 H 592.269 -3.65647 1.41578 0
M  V30 6106 H 593.759 -4.13944 0.551378 0
M  V30 6107 N 594.196 -1.08629 -1.14182 0
M  V30 6108 C 595.443 -0.817345 -1.85272 0
M  V30 6109 C 595.771 0.656917 -1.83071 0
M  V30 6110 O 595.026 1.49897 -1.25815 0
M  V30 6111 C 595.325 -1.28734 -3.3341 0
M  V30 6112 C 594.991 -2.76981 -3.55798 0
M  V30 6113 C 593.653 -3.17469 -3.61617 0
M  V30 6114 C 596.005 -3.72605 -3.64438 0
M  V30 6115 C 593.333 -4.52371 -3.736 0
M  V30 6116 C 595.685 -5.07286 -3.77947 0
M  V30 6117 C 594.349 -5.47376 -3.82016 0
M  V30 6118 H 593.619 -0.299088 -0.677958 0
M  V30 6119 H 596.266 -1.35962 -1.34857 0
M  V30 6120 H 594.571 -0.664702 -3.8612 0
M  V30 6121 H 596.268 -1.05598 -3.86846 0
M  V30 6122 H 592.858 -2.44644 -3.51919 0
M  V30 6123 H 597.042 -3.42443 -3.5923 0
M  V30 6124 H 592.298 -4.82882 -3.75013 0
M  V30 6125 H 596.472 -5.81243 -3.83575 0
M  V30 6126 H 594.099 -6.51906 -3.91054 0
M  V30 6127 N 595.674 1.31259 -0.872281 0
M  V30 6128 C 596.604 2.30929 -0.345554 0
M  V30 6129 C 597.585 1.60449 0.5648 0
M  V30 6130 O 598.77 1.8814 0.481335 0
M  V30 6131 C 595.9 3.44348 0.451823 0
M  V30 6132 C 594.854 4.26435 -0.365641 0
M  V30 6133 C 594.18 5.31785 0.557562 0
M  V30 6134 C 595.48 4.97159 -1.60095 0
M  V30 6135 H 597.174 2.75234 -1.17841 0
M  V30 6136 H 594.72 1.3232 -0.568094 0
M  V30 6137 H 596.673 4.13128 0.830854 0
M  V30 6138 H 595.397 2.98816 1.31821 0
M  V30 6139 H 594.056 3.59326 -0.726649 0
M  V30 6140 H 593.704 4.82502 1.4213 0
M  V30 6141 H 593.404 5.87598 0.0144878 0
M  V30 6142 H 594.928 6.03424 0.933387 0
M  V30 6143 H 596.342 5.58523 -1.29323 0
M  V30 6144 H 594.739 5.62779 -2.08327 0
M  V30 6145 H 595.809 4.24012 -2.35249 0
M  V30 6146 N 597.152 0.631951 1.44375 0
M  V30 6147 C 598.399 0.136767 2.02038 0
M  V30 6148 C 598.727 -1.24168 1.49709 0
M  V30 6149 O 597.982 -1.83809 0.671763 0
M  V30 6150 C 598.281 0.0735861 3.57324 0
M  V30 6151 C 597.947 1.39092 4.28911 0
M  V30 6152 C 596.609 1.75171 4.48184 0
M  V30 6153 C 598.961 2.26042 4.69632 0
M  V30 6154 C 596.289 2.97907 5.05439 0
M  V30 6155 C 598.641 3.4805 5.28246 0
M  V30 6156 C 597.305 3.84351 5.45738 0
M  V30 6157 H 596.575 0.0500466 0.739308 0
M  V30 6158 H 599.222 0.818429 1.7313 0
M  V30 6159 H 597.527 -0.691449 3.8565 0
M  V30 6160 H 599.224 -0.326091 3.99672 0
M  V30 6161 H 595.814 1.10015 4.1424 0
M  V30 6162 H 599.998 1.99463 4.54454 0
M  V30 6163 H 595.254 3.26108 5.17169 0
M  V30 6164 H 599.428 4.15658 5.5875 0
M  V30 6165 H 597.055 4.79538 5.8987 0
M  V30 6166 N 598.631 -1.53133 0.372548 0
M  V30 6167 C 599.908 -1.93704 -0.271693 0
M  V30 6168 C 600.288 -1.30667 -1.65799 0
M  V30 6169 O 599.636 -0.46838 -2.23648 0
M  V30 6170 C 599.846 -3.47576 -0.314903 0
M  V30 6171 C 601.194 -4.20998 -0.551912 0
M  V30 6172 O 602.218 -3.53994 -0.39582 0
M  V30 6173 O 601.077 -5.39748 -0.85639 0
M  V30 6174 H 598.171 -0.810457 -0.164586 0
M  V30 6175 H 600.717 -1.6427 0.425838 0
M  V30 6176 H 599.489 -3.85749 0.656792 0
M  V30 6177 H 599.112 -3.83264 -1.05804 0
M  V30 6178 N 600.109 -0.101901 -1.5727 0
M  V30 6179 C 601.039 0.851544 -2.17419 0
M  V30 6180 C 602.02 1.28942 -1.10941 0
M  V30 6181 O 603.205 1.35509 -1.39107 0
M  V30 6182 C 600.335 2.10816 -2.75996 0
M  V30 6183 C 599.289 1.80867 -3.87906 0
M  V30 6184 C 598.615 3.13413 -4.33216 0
M  V30 6185 C 599.915 1.0903 -5.10793 0
M  V30 6186 H 601.609 0.350381 -2.97343 0
M  V30 6187 H 599.155 0.16709 -1.43027 0
M  V30 6188 H 601.108 2.77959 -3.16729 0
M  V30 6189 H 599.832 2.63227 -1.93337 0
M  V30 6190 H 598.491 1.16119 -3.47724 0
M  V30 6191 H 598.139 3.63725 -3.47438 0
M  V30 6192 H 597.839 2.94155 -5.08671 0
M  V30 6193 H 599.363 3.81704 -4.76586 0
M  V30 6194 H 600.777 1.66295 -5.48652 0
M  V30 6195 H 599.174 0.99927 -5.91722 0
M  V30 6196 H 600.244 0.0741704 -4.84843 0
M  V30 6197 N 601.587 1.56661 0.17182 0
M  V30 6198 C 602.534 1.96371 1.21273 0
M  V30 6199 C 603.504 0.82756 1.44016 0
M  V30 6200 O 604.689 1.08764 1.56764 0
M  V30 6201 C 601.829 2.32838 2.54716 0
M  V30 6202 C 600.942 3.59628 2.39356 0
M  V30 6203 C 600.077 3.85311 3.65662 0
M  V30 6204 C 599.116 5.0545 3.45234 0
M  V30 6205 N 598.253 5.27268 4.63608 0
M  V30 6206 H 603.093 2.85106 0.86709 0
M  V30 6207 H 600.63 1.41073 0.416744 0
M  V30 6208 H 602.588 2.52004 3.3249 0
M  V30 6209 H 601.218 1.47214 2.87277 0
M  V30 6210 H 600.27 3.4838 1.52761 0
M  V30 6211 H 601.582 4.4756 2.20207 0
M  V30 6212 H 600.736 4.04841 4.51872 0
M  V30 6213 H 599.475 2.95753 3.8779 0
M  V30 6214 H 598.48 4.85819 2.5741 0
M  V30 6215 H 599.705 5.96538 3.24529 0
M  V30 6216 H 597.651 4.40662 4.85956 0
M  V30 6217 H 597.568 6.09422 4.4737 0
M  V30 6218 H 598.836 5.51277 5.51103 0
M  V30 6219 N 603.065 -0.440357 1.51323 0
M  V30 6220 C 604.028 -1.51679 1.71832 0
M  V30 6221 C 605.028 -1.49648 0.588386 0
M  V30 6222 O 606.218 -1.51724 0.855891 0
M  V30 6223 C 603.35 -2.91228 1.77199 0
M  V30 6224 H 604.543 -1.34799 2.67898 0
M  V30 6225 H 602.096 -0.66883 1.41267 0
M  V30 6226 H 602.831 -3.13516 0.829363 0
M  V30 6227 H 602.616 -2.94107 2.59314 0
M  V30 6228 H 604.106 -3.69321 1.94915 0
M  V30 6229 N 604.543 -1.41418 -0.695603 0
M  V30 6230 C 605.473 -1.46035 -1.82197 0
M  V30 6231 C 606.454 -0.319025 -1.67082 0
M  V30 6232 O 607.639 -0.530462 -1.86815 0
M  V30 6233 C 604.769 -1.34179 -3.20333 0
M  V30 6234 C 603.723 -2.46123 -3.50154 0
M  V30 6235 C 603.049 -2.19332 -4.87645 0
M  V30 6236 C 604.349 -3.88463 -3.49133 0
M  V30 6237 H 606.043 -2.40303 -1.78591 0
M  V30 6238 H 603.589 -1.15663 -0.857797 0
M  V30 6239 H 605.542 -1.36021 -3.98844 0
M  V30 6240 H 604.266 -0.363952 -3.24566 0
M  V30 6241 H 602.925 -2.43563 -2.73994 0
M  V30 6242 H 602.573 -1.19891 -4.88503 0
M  V30 6243 H 602.273 -2.94344 -5.08562 0
M  V30 6244 H 603.797 -2.22889 -5.68465 0
M  V30 6245 H 605.211 -3.92738 -4.17648 0
M  V30 6246 H 603.608 -4.63158 -3.81582 0
M  V30 6247 H 604.678 -4.16617 -2.48109 0
M  V30 6248 N 606.021 0.929856 -1.27246 0
M  V30 6249 C 607.267 1.6798 -1.13625 0
M  V30 6250 C 607.6 1.91586 0.317589 0
M  V30 6251 O 606.875 1.50467 1.23247 0
M  V30 6252 C 607.158 3.04766 -1.91806 0
M  V30 6253 C 607.011 2.88415 -3.45162 0
M  V30 6254 C 608.33 4.05063 -1.72082 0
M  V30 6255 H 605.449 0.609632 -0.414147 0
M  V30 6256 H 608.091 1.0792 -1.56376 0
M  V30 6257 H 606.241 3.56034 -1.55474 0
M  V30 6258 H 607.913 2.44282 -3.91311 0
M  V30 6259 H 606.156 2.23802 -3.71611 0
M  V30 6260 H 606.827 3.85482 -3.95105 0
M  V30 6261 H 609.303 3.62798 -2.03757 0
M  V30 6262 H 608.179 4.98765 -2.29182 0
M  V30 6263 H 608.44 4.37021 -0.668206 0
M  V30 6264 N 607.499 1.09233 1.13605 0
M  V30 6265 C 608.776 0.739633 1.81077 0
M  V30 6266 C 609.156 -0.775595 1.96336 0
M  V30 6267 O 608.504 -1.69726 1.52988 0
M  V30 6268 C 608.714 1.47636 3.16235 0
M  V30 6269 C 610.062 1.64087 3.91613 0
M  V30 6270 O 611.086 1.43871 3.25852 0
M  V30 6271 O 609.945 1.97511 5.0956 0
M  V30 6272 H 607.039 0.265464 0.783236 0
M  V30 6273 H 609.585 1.19441 1.20549 0
M  V30 6274 H 608.357 2.50818 3.00344 0
M  V30 6275 H 607.98 1.01362 3.84462 0
M  V30 6276 N 608.977 -1.30795 0.87923 0
M  V30 6277 C 609.91 -2.26396 0.286404 0
M  V30 6278 C 610.888 -1.51528 -0.589748 0
M  V30 6279 O 612.072 -1.80566 -0.541119 0
M  V30 6280 C 609.199 -3.33458 -0.593581 0
M  V30 6281 C 608.245 -4.2597 0.21247 0
M  V30 6282 S 609.078 -5.11132 1.59702 0
M  V30 6283 C 610.234 -6.21705 0.723408 0
M  V30 6284 H 610.467 -2.7633 1.09677 0
M  V30 6285 H 608 -1.38703 0.678305 0
M  V30 6286 H 609.958 -3.9561 -1.09557 0
M  V30 6287 H 608.619 -2.82259 -1.37799 0
M  V30 6288 H 607.812 -5.01907 -0.458822 0
M  V30 6289 H 607.414 -3.68363 0.646883 0
M  V30 6290 H 609.706 -6.77472 -0.0620739 0
M  V30 6291 H 610.649 -6.93007 1.4542 0
M  V30 6292 H 611.057 -5.63771 0.286855 0
M  V30 6293 N 610.455 -0.639598 -1.44038 0
M  V30 6294 C 611.388 0.109736 -2.27936 0
M  V30 6295 C 612.366 0.843095 -1.39035 0
M  V30 6296 O 613.55 0.845456 -1.68476 0
M  V30 6297 C 610.677 1.16173 -3.18153 0
M  V30 6298 C 609.723 0.527954 -4.2322 0
M  V30 6299 S 610.556 -0.688318 -5.31058 0
M  V30 6300 C 611.712 0.363481 -6.24844 0
M  V30 6301 H 611.945 -0.601986 -2.91142 0
M  V30 6302 H 609.478 -0.42802 -1.48349 0
M  V30 6303 H 611.436 1.76372 -3.7068 0
M  V30 6304 H 610.097 1.84569 -2.54151 0
M  V30 6305 H 609.29 1.32054 -4.86393 0
M  V30 6306 H 608.892 0.000396444 -3.74 0
M  V30 6307 H 611.184 1.23362 -6.66174 0
M  V30 6308 H 612.127 -0.23288 -7.07717 0
M  V30 6309 H 612.535 0.693179 -5.60228 0
M  V30 6310 N 611.933 1.52934 -0.380664 0
M  V30 6311 C 613.158 2.06363 0.207157 0
M  V30 6312 C 613.583 1.25122 1.4045 0
M  V30 6313 O 612.941 0.274062 1.79217 0
M  V30 6314 C 612.989 3.56162 0.563996 0
M  V30 6315 O 612.093 3.77552 1.65917 0
M  V30 6316 H 611.434 0.663468 0.0265859 0
M  V30 6317 H 613.964 1.9719 -0.545635 0
M  V30 6318 H 613.974 3.99453 0.830752 0
M  V30 6319 H 612.649 4.14732 -0.311427 0
M  V30 6320 H 611.226 3.46154 1.3868 0
M  V30 6321 N 613.412 0.11024 1.57214 0
M  V30 6322 C 614.661 -0.549638 1.94067 0
M  V30 6323 C 614.974 -1.68388 0.995234 0
M  V30 6324 O 616.18 -2.40593 1.25807 0
M  V30 6325 C 614.636 -1.02912 3.44873 0
M  V30 6326 C 614.244 0.0761861 4.47935 0
M  V30 6327 C 615.988 -1.66087 3.9066 0
M  V30 6328 C 613.895 -0.419502 5.8991 0
M  V30 6329 H 612.825 -0.209092 0.724428 0
M  V30 6330 H 615.476 0.188683 1.82527 0
M  V30 6331 H 613.858 -1.82159 3.51616 0
M  V30 6332 H 615.032 0.852185 4.52851 0
M  V30 6333 H 613.347 0.614052 4.11847 0
M  V30 6334 H 615.944 -2.04272 4.94143 0
M  V30 6335 H 616.287 -2.53591 3.30148 0
M  V30 6336 H 616.82 -0.933959 3.86681 0
M  V30 6337 H 613.559 0.419277 6.54158 0
M  V30 6338 H 613.079 -1.16217 5.88433 0
M  V30 6339 H 614.758 -0.883577 6.40938 0
M  V30 6340 N 614.89 -1.56749 -0.16351 0
M  V30 6341 C 616.138 -1.82074 -0.87713 0
M  V30 6342 C 616.459 -0.688503 -1.82441 0
M  V30 6343 O 615.729 0.291085 -1.93725 0
M  V30 6344 H 614.309 -0.671677 -0.326893 0
M  V30 6345 H 616.971 -1.9423 -0.161459 0
M  V30 6346 H 616.067 -2.76407 -1.44934 0
M  V30 6347 N 616.368 0.432326 -1.51554 0
M  V30 6348 C 617.596 1.20364 -1.68286 0
M  V30 6349 C 618.011 1.84888 -0.38233 0
M  V30 6350 O 617.368 1.70924 0.639627 0
M  V30 6351 C 617.419 2.28398 -2.80208 0
M  V30 6352 O 617.14 1.66512 -4.05223 0
M  V30 6353 C 618.641 3.18584 -3.08251 0
M  V30 6354 H 615.861 0.36259 -0.564596 0
M  V30 6355 H 618.405 0.511647 -1.97996 0
M  V30 6356 H 616.56 2.93305 -2.53083 0
M  V30 6357 H 616.974 2.37951 -4.67418 0
M  V30 6358 H 618.448 3.90511 -3.90135 0
M  V30 6359 H 618.925 3.79628 -2.2086 0
M  V30 6360 H 619.531 2.59372 -3.37055 0
M  V30 6361 N 617.846 1.41785 0.688094 0
M  V30 6362 C 618.776 1.47 1.8142 0
M  V30 6363 C 619.757 0.327881 1.6691 0
M  V30 6364 O 620.942 0.540362 1.86531 0
M  V30 6365 C 618.072 1.35876 3.19617 0
M  V30 6366 C 617.026 2.47976 3.48844 0
M  V30 6367 C 616.352 2.21915 4.86475 0
M  V30 6368 C 617.652 3.90309 3.47068 0
M  V30 6369 H 619.346 2.41247 1.77314 0
M  V30 6370 H 616.892 1.16116 0.851651 0
M  V30 6371 H 618.845 1.38134 3.98117 0
M  V30 6372 H 617.569 0.38116 3.24368 0
M  V30 6373 H 616.228 2.45013 2.72698 0
M  V30 6374 H 615.876 1.2248 4.8786 0
M  V30 6375 H 615.576 2.97037 5.06994 0
M  V30 6376 H 617.1 2.25901 5.67275 0
M  V30 6377 H 618.514 3.94947 4.1556 0
M  V30 6378 H 616.911 4.65175 3.7912 0
M  V30 6379 H 617.981 4.17927 2.45896 0
M  V30 6380 N 619.324 -0.923095 1.27737 0
M  V30 6381 C 620.257 -2.02515 1.05181 0
M  V30 6382 C 621.235 -1.62574 -0.0292204 0
M  V30 6383 O 622.419 -1.88137 0.116848 0
M  V30 6384 C 619.546 -3.33407 0.596468 0
M  V30 6385 C 618.592 -3.92328 1.67276 0
M  V30 6386 S 619.425 -4.24342 3.26641 0
M  V30 6387 C 620.581 -5.58308 2.82919 0
M  V30 6388 H 620.814 -2.21336 1.98488 0
M  V30 6389 H 618.347 -1.06679 1.1162 0
M  V30 6390 H 620.305 -4.09086 0.34044 0
M  V30 6391 H 618.966 -3.125 -0.316614 0
M  V30 6392 H 618.159 -4.86797 1.30556 0
M  V30 6393 H 617.761 -3.2325 1.8811 0
M  V30 6394 H 620.053 -6.37801 2.28509 0
M  V30 6395 H 620.996 -5.99931 3.7615 0
M  V30 6396 H 621.404 -5.19049 2.21919 0
M  V30 6397 N 620.802 -1.09834 -1.13024 0
M  V30 6398 C 621.765 -0.745058 -2.16752 0
M  V30 6399 C 622.765 0.227435 -1.59183 0
M  V30 6400 O 623.955 0.0050786 -1.74199 0
M  V30 6401 C 621.087 -0.102543 -3.40746 0
M  V30 6402 H 622.28 -1.66375 -2.49518 0
M  V30 6403 H 619.833 -0.898061 -1.27924 0
M  V30 6404 H 620.568 0.827177 -3.13573 0
M  V30 6405 H 620.353 -0.80235 -3.83803 0
M  V30 6406 H 621.843 0.129082 -4.174 0
M  V30 6407 N 622.28 1.30327 -0.886154 0
M  V30 6408 C 623.51 1.99964 -0.519421 0
M  V30 6409 C 623.918 1.66593 0.89686 0
M  V30 6410 O 623.261 0.899886 1.60149 0
M  V30 6411 C 623.323 3.54187 -0.615795 0
M  V30 6412 C 622.987 4.11078 -1.9966 0
M  V30 6413 C 623.984 4.26985 -2.96614 0
M  V30 6414 C 621.669 4.46429 -2.30231 0
M  V30 6415 C 623.663 4.77456 -4.22273 0
M  V30 6416 C 621.35 4.966 -3.56135 0
M  V30 6417 C 622.348 5.12066 -4.5197 0
M  V30 6418 O 622.036 5.61154 -5.7564 0
M  V30 6419 H 621.768 0.645979 -0.199217 0
M  V30 6420 H 624.322 1.67154 -1.19368 0
M  V30 6421 H 622.552 3.86528 0.115448 0
M  V30 6422 H 624.241 4.05065 -0.26017 0
M  V30 6423 H 625.007 3.99975 -2.74308 0
M  V30 6424 H 620.886 4.33658 -1.56404 0
M  V30 6425 H 624.43 4.89444 -4.97082 0
M  V30 6426 H 620.327 5.23045 -3.78277 0
M  V30 6427 H 621.095 5.79494 -5.78039 0
M  V30 6428 N 623.758 0.647228 1.43697 0
M  V30 6429 C 624.983 0.164083 2.0675 0
M  V30 6430 C 625.408 -1.15892 1.48158 0
M  V30 6431 O 624.766 -1.71459 0.589194 0
M  V30 6432 C 624.814 0.0800368 3.60511 0
M  V30 6433 O 623.918 -0.959453 4.01084 0
M  V30 6434 H 623.259 0.0921288 0.657578 0
M  V30 6435 H 625.789 0.88846 1.84303 0
M  V30 6436 H 625.799 -0.105263 4.07864 0
M  V30 6437 H 624.474 1.04586 4.02535 0
M  V30 6438 H 623.051 -0.747425 3.65333 0
M  V30 6439 N 625.236 -1.5273 0.388769 0
M  V30 6440 C 626.166 -2.29353 -0.438111 0
M  V30 6441 C 627.147 -1.32719 -1.06394 0
M  V30 6442 O 628.332 -1.61612 -1.07681 0
M  V30 6443 C 625.462 -3.09995 -1.56589 0
M  V30 6444 C 624.416 -4.14509 -1.06613 0
M  V30 6445 C 623.742 -4.83372 -2.28594 0
M  V30 6446 C 625.042 -5.22127 -0.134459 0
M  V30 6447 H 626.736 -2.98723 0.201206 0
M  V30 6448 H 624.282 -1.43665 0.0982089 0
M  V30 6449 H 626.235 -3.62357 -2.15118 0
M  V30 6450 H 624.959 -2.38357 -2.23279 0
M  V30 6451 H 623.618 -3.63128 -0.503383 0
M  V30 6452 H 623.266 -4.08283 -2.93792 0
M  V30 6453 H 622.966 -5.54012 -1.95817 0
M  V30 6454 H 624.49 -5.38538 -2.87766 0
M  V30 6455 H 625.904 -5.69851 -0.627914 0
M  V30 6456 H 624.301 -6.00011 0.103534 0
M  V30 6457 H 625.371 -4.77971 0.816798 0
M  V30 6458 N 626.714 -0.118576 -1.57153 0
M  V30 6459 C 627.96 0.540326 -1.95469 0
M  V30 6460 C 628.293 1.66356 -1.00196 0
M  V30 6461 O 627.568 1.94461 -0.039104 0
M  V30 6462 C 627.851 1.07342 -3.43729 0
M  V30 6463 C 627.704 -0.0463732 -4.49776 0
M  V30 6464 C 629.023 1.96442 -3.93826 0
M  V30 6465 H 626.142 0.19494 -0.710751 0
M  V30 6466 H 628.784 -0.19405 -1.89006 0
M  V30 6467 H 626.934 1.69925 -3.49368 0
M  V30 6468 H 628.606 -0.681648 -4.56236 0
M  V30 6469 H 626.849 -0.709574 -4.27957 0
M  V30 6470 H 627.52 0.367856 -5.50773 0
M  V30 6471 H 629.996 1.43731 -3.90488 0
M  V30 6472 H 628.872 2.3066 -4.98084 0
M  V30 6473 H 629.133 2.89077 -3.34495 0
M  V30 6474 N 628.193 1.56834 0.155195 0
M  V30 6475 C 629.156 1.96748 1.17571 0
M  V30 6476 C 630.156 0.853006 1.3631 0
M  V30 6477 O 631.346 1.11978 1.33441 0
M  V30 6478 C 628.478 2.27631 2.53765 0
M  V30 6479 H 629.671 2.88085 0.833498 0
M  V30 6480 H 627.224 1.51141 0.398242 0
M  V30 6481 H 627.959 1.39059 2.92973 0
M  V30 6482 H 627.744 3.0888 2.41527 0
M  V30 6483 H 629.234 2.59377 3.27282 0
M  V30 6484 N 629.671 -0.424282 1.51781 0
M  V30 6485 C 630.634 -1.49848 1.73431 0
M  V30 6486 C 631.634 -1.49016 0.604225 0
M  V30 6487 O 632.824 -1.50808 0.871935 0
M  V30 6488 C 629.956 -2.89332 1.80277 0
M  V30 6489 H 631.149 -1.3195 2.69312 0
M  V30 6490 H 628.702 -0.653809 1.41968 0
M  V30 6491 H 629.437 -3.12618 0.862568 0
M  V30 6492 H 629.222 -2.9134 2.62419 0
M  V30 6493 H 630.712 -3.67233 1.98821 0
M  V30 6494 N 631.149 -1.42148 -0.680565 0
M  V30 6495 C 632.389 -1.4379 -1.45271 0
M  V30 6496 C 632.753 -0.0504426 -1.91934 0
M  V30 6497 O 633.954 0.0583916 -2.68737 0
M  V30 6498 C 632.225 -2.42904 -2.62168 0
M  V30 6499 S 633.784 -2.63201 -3.51099 0
M  V30 6500 H 630.602 -0.509185 -0.496237 0
M  V30 6501 H 633.204 -1.78706 -0.792744 0
M  V30 6502 H 631.908 -3.4249 -2.26116 0
M  V30 6503 H 631.439 -2.09394 -3.33043 0
M  V30 6504 H 633.454 -1.91068 -4.57938 0
M  V30 6505 N 632.627 0.916307 -1.28225 0
M  V30 6506 C 633.873 1.66765 -1.154 0
M  V30 6507 C 634.206 1.91912 0.297251 0
M  V30 6508 O 633.481 1.51766 1.21644 0
M  V30 6509 C 633.764 3.02715 -1.95028 0
M  V30 6510 C 633.617 2.84738 -3.48201 0
M  V30 6511 C 634.936 4.03215 -1.76369 0
M  V30 6512 H 632.055 0.605205 -0.42059 0
M  V30 6513 H 634.697 1.06255 -1.57512 0
M  V30 6514 H 632.847 3.54365 -1.59242 0
M  V30 6515 H 634.519 2.40118 -3.9388 0
M  V30 6516 H 632.762 2.19848 -3.73964 0
M  V30 6517 H 633.433 3.8127 -3.99171 0
M  V30 6518 H 635.909 3.60617 -2.07593 0
M  V30 6519 H 634.785 4.96306 -2.34459 0
M  V30 6520 H 635.046 4.36288 -0.71452 0
M  V30 6521 N 634.105 1.10431 1.1244 0
M  V30 6522 C 635.035 0.775143 2.20258 0
M  V30 6523 C 636.016 -0.25186 1.68225 0
M  V30 6524 O 637.201 -0.117637 1.93843 0
M  V30 6525 C 634.331 0.206133 3.46688 0
M  V30 6526 C 633.285 1.16382 4.11873 0
M  V30 6527 C 632.611 0.456014 5.32752 0
M  V30 6528 C 633.911 2.5104 4.58013 0
M  V30 6529 H 635.605 1.67665 2.4805 0
M  V30 6530 H 633.151 0.807595 1.19222 0
M  V30 6531 H 635.104 -0.036291 4.21384 0
M  V30 6532 H 633.828 -0.730614 3.18323 0
M  V30 6533 H 632.487 1.39169 3.39157 0
M  V30 6534 H 632.135 -0.485203 5.00654 0
M  V30 6535 H 631.835 1.09466 5.77314 0
M  V30 6536 H 633.359 0.222135 6.10196 0
M  V30 6537 H 634.773 2.32401 5.24083 0
M  V30 6538 H 633.17 3.10789 5.13352 0
M  V30 6539 H 634.24 3.11039 3.71998 0
M  V30 6540 N 635.583 -1.29855 0.893053 0
M  V30 6541 C 636.832 -1.95104 0.511597 0
M  V30 6542 C 637.145 -1.71226 -0.945567 0
M  V30 6543 O 638.351 -2.30525 -1.43424 0
M  V30 6544 C 636.807 -3.49374 0.864034 0
M  V30 6545 C 636.415 -3.82061 2.33952 0
M  V30 6546 C 638.159 -4.20894 0.552167 0
M  V30 6547 C 636.066 -5.29546 2.63316 0
M  V30 6548 H 634.996 -0.73029 0.187597 0
M  V30 6549 H 637.647 -1.47682 1.08914 0
M  V30 6550 H 636.029 -3.95413 0.215493 0
M  V30 6551 H 637.203 -3.46904 3.03305 0
M  V30 6552 H 635.518 -3.23665 2.61973 0
M  V30 6553 H 638.115 -5.29435 0.748489 0
M  V30 6554 H 638.458 -4.13178 -0.508924 0
M  V30 6555 H 638.991 -3.80564 1.15825 0
M  V30 6556 H 635.73 -5.4232 3.68197 0
M  V30 6557 H 635.25 -5.65974 1.9858 0
M  V30 6558 H 636.929 -5.97068 2.49236 0
M  V30 6559 N 637.061 -0.65484 -1.43351 0
M  V30 6560 C 637.991 0.0221809 -2.33489 0
M  V30 6561 C 638.972 0.810272 -1.49561 0
M  V30 6562 O 640.157 0.771426 -1.78221 0
M  V30 6563 C 637.287 0.988117 -3.32947 0
M  V30 6564 C 636.241 0.310026 -4.26876 0
M  V30 6565 C 635.567 1.38752 -5.16384 0
M  V30 6566 C 636.867 -0.798589 -5.16159 0
M  V30 6567 H 638.561 -0.730571 -2.9035 0
M  V30 6568 H 636.107 -0.352773 -1.39612 0
M  V30 6569 H 638.06 1.47067 -3.94904 0
M  V30 6570 H 636.784 1.77205 -2.74346 0
M  V30 6571 H 635.443 -0.152097 -3.66284 0
M  V30 6572 H 635.091 2.16293 -4.54121 0
M  V30 6573 H 634.791 0.939051 -5.80048 0
M  V30 6574 H 636.315 1.87141 -5.81215 0
M  V30 6575 H 637.729 -0.398126 -5.71916 0
M  V30 6576 H 636.126 -1.17163 -5.88552 0
M  V30 6577 H 637.196 -1.65588 -4.55751 0
M  V30 6578 N 638.539 1.52521 -0.396863 0
M  V30 6579 C 639.955 1.5953 -0.0471659 0
M  V30 6580 C 640.155 1.41044 1.43906 0
M  V30 6581 O 639.211 1.23122 2.20448 0
M  V30 6582 C 640.524 2.95972 -0.531113 0
M  V30 6583 C 642.072 3.09172 -0.488024 0
M  V30 6584 C 642.547 4.48075 -0.948281 0
M  V30 6585 N 644.038 4.54281 -0.9046 0
M  V30 6586 C 644.773 5.60007 -1.23205 0
M  V30 6587 N 644.269 6.73343 -1.63036 0
M  V30 6588 N 646.062 5.50151 -1.15282 0
M  V30 6589 H 638.213 1.62786 -1.36435 0
M  V30 6590 H 640.476 0.76514 -0.559701 0
M  V30 6591 H 640.182 3.14741 -1.56942 0
M  V30 6592 H 640.056 3.77143 0.0657922 0
M  V30 6593 H 642.443 2.90095 0.541211 0
M  V30 6594 H 642.524 2.29937 -1.12083 0
M  V30 6595 H 642.168 4.67894 -1.97578 0
M  V30 6596 H 642.098 5.25788 -0.292412 0
M  V30 6597 H 644.589 3.72918 -0.6116 0
M  V30 6598 H 644.902 7.49992 -1.86365 0
M  V30 6599 H 643.247 6.74655 -1.66929 0
M  V30 6600 H 646.438 4.6049 -0.840602 0
M  V30 6601 H 646.611 6.32444 -1.41133 0
M  V30 6602 N 640.017 0.126909 1.57088 0
M  V30 6603 C 641.247 -0.535892 1.99529 0
M  V30 6604 C 641.655 -1.60259 1.00566 0
M  V30 6605 O 640.998 -1.83698 -0.00843269 0
M  V30 6606 C 641.06 -1.21374 3.38391 0
M  V30 6607 C 640.724 -0.294044 4.56053 0
M  V30 6608 C 641.721 0.470454 5.17767 0
M  V30 6609 C 639.406 -0.202808 5.0189 0
M  V30 6610 C 641.4 1.31384 6.23712 0
M  V30 6611 C 639.087 0.644203 6.07695 0
M  V30 6612 C 640.085 1.40115 6.68473 0
M  V30 6613 O 639.773 2.23408 7.72233 0
M  V30 6614 H 639.505 -0.145799 0.66009 0
M  V30 6615 H 642.059 0.212441 2.04298 0
M  V30 6616 H 640.289 -2.00931 3.30399 0
M  V30 6617 H 641.978 -1.77424 3.65069 0
M  V30 6618 H 642.744 0.409884 4.83265 0
M  V30 6619 H 638.623 -0.781688 4.54324 0
M  V30 6620 H 642.167 1.90514 6.71081 0
M  V30 6621 H 638.064 0.706137 6.41626 0
M  V30 6622 H 638.832 2.16436 7.89365 0
M  V30 6623 N 641.495 -1.56914 -0.146875 0
M  V30 6624 C 642.427 -1.94878 -1.20645 0
M  V30 6625 C 643.44 -0.844633 -1.39175 0
M  V30 6626 O 644.629 -1.12304 -1.38744 0
M  V30 6627 C 641.729 -2.20769 -2.57127 0
M  V30 6628 C 640.902 -3.52053 -2.59572 0
M  V30 6629 C 639.961 -3.66482 -3.77594 0
M  V30 6630 O 638.987 -4.38873 -3.62462 0
M  V30 6631 N 640.189 -3.03156 -4.95052 0
M  V30 6632 H 642.954 -2.86374 -0.883757 0
M  V30 6633 H 640.515 -1.58366 -0.336436 0
M  V30 6634 H 642.507 -2.27664 -3.34591 0
M  V30 6635 H 641.077 -1.35538 -2.81688 0
M  V30 6636 H 640.297 -3.56598 -1.68023 0
M  V30 6637 H 641.585 -4.38396 -2.58238 0
M  V30 6638 H 640.983 -2.44258 -5.10249 0
M  V30 6639 H 639.54 -3.15611 -5.70292 0
M  V30 6640 N 642.974 0.416227 -1.52004 0
M  V30 6641 C 644.385 0.995319 -1.57957 0
M  V30 6642 C 644.736 1.91744 -0.415754 0
M  V30 6643 O 643.861 2.11349 0.464808 0
M  V30 6644 C 644.456 1.81191 -2.86278 0
M  V30 6645 C 643.015 2.34115 -2.94732 0
M  V30 6646 C 642.162 1.139 -2.52828 0
M  V30 6647 H 645.113 0.196716 -1.57476 0
M  V30 6648 H 645.134 2.66859 -2.71231 0
M  V30 6649 H 644.646 1.14051 -3.70963 0
M  V30 6650 H 642.747 3.04647 -2.14525 0
M  V30 6651 H 642.86 2.65466 -3.98829 0
M  V30 6652 H 641.224 1.49081 -2.06511 0
M  V30 6653 H 642.007 0.483383 -3.3988 0
M  V30 6654 N 644.452 1.42507 0.673017 0
M  V30 6655 C 645.7 1.42789 1.43023 0
M  V30 6656 C 646.021 0.0459738 1.94946 0
M  V30 6657 O 645.291 -0.915765 1.73178 0
M  V30 6658 H 643.871 0.525657 0.530748 0
M  V30 6659 H 646.533 1.77944 0.795113 0
M  V30 6660 H 645.629 2.12872 2.28237 0
M  V30 6661 N 645.93 -0.909495 1.28709 0
M  V30 6662 C 646.86 -2.0291 1.15542 0
M  V30 6663 C 647.841 -1.7002 0.0521017 0
M  V30 6664 O 649.026 -1.92835 0.229849 0
M  V30 6665 C 646.156 -3.37458 0.820935 0
M  V30 6666 C 645.11 -3.84524 1.87949 0
M  V30 6667 C 644.436 -5.16086 1.39854 0
M  V30 6668 C 645.736 -4.05918 3.28676 0
M  V30 6669 H 647.43 -2.14183 2.09203 0
M  V30 6670 H 644.976 -1.02913 1.00722 0
M  V30 6671 H 646.929 -4.1528 0.715571 0
M  V30 6672 H 645.653 -3.26249 -0.151374 0
M  V30 6673 H 644.312 -3.08911 1.97408 0
M  V30 6674 H 643.96 -5.01284 0.41518 0
M  V30 6675 H 643.66 -5.48547 2.1064 0
M  V30 6676 H 645.184 -5.96459 1.30649 0
M  V30 6677 H 646.598 -4.74252 3.22115 0
M  V30 6678 H 644.995 -4.49717 3.97334 0
M  V30 6679 H 646.065 -3.10583 3.72379 0
M  V30 6680 N 647.408 -1.11026 -1.11852 0
M  V30 6681 C 648.633 -0.879064 -1.87849 0
M  V30 6682 C 649.058 0.565406 -1.79401 0
M  V30 6683 O 648.416 1.39886 -1.15333 0
M  V30 6684 C 648.464 -1.33985 -3.34784 0
M  V30 6685 O 647.568 -0.508803 -4.09249 0
M  V30 6686 H 646.909 -0.316992 -0.583448 0
M  V30 6687 H 649.439 -1.47863 -1.41413 0
M  V30 6688 H 649.449 -1.33248 -3.85628 0
M  V30 6689 H 648.124 -2.39172 -3.40249 0
M  V30 6690 H 646.701 -0.581913 -3.68332 0
M  V30 6691 N 648.886 1.2938 -0.899927 0
M  V30 6692 C 650.116 1.99402 -0.540601 0
M  V30 6693 C 650.524 1.67534 0.87914 0
M  V30 6694 O 649.867 0.916821 1.59186 0
M  V30 6695 C 649.929 3.53514 -0.653326 0
M  V30 6696 C 649.593 4.08937 -2.04009 0
M  V30 6697 C 650.59 4.23815 -3.01126 0
M  V30 6698 C 648.275 4.43962 -2.34953 0
M  V30 6699 C 650.269 4.72951 -4.27313 0
M  V30 6700 C 647.956 4.92795 -3.61382 0
M  V30 6701 C 648.954 5.07244 -4.57376 0
M  V30 6702 O 648.642 5.55017 -5.8156 0
M  V30 6703 H 648.374 0.64383 -0.206057 0
M  V30 6704 H 650.928 1.65878 -1.21134 0
M  V30 6705 H 649.158 3.86628 0.0744449 0
M  V30 6706 H 650.847 4.04767 -0.303118 0
M  V30 6707 H 651.613 3.97043 -2.78535 0
M  V30 6708 H 647.492 4.31974 -1.60994 0
M  V30 6709 H 651.036 4.84144 -5.02245 0
M  V30 6710 H 646.933 5.19004 -3.83804 0
M  V30 6711 H 647.701 5.73331 -5.84153 0
M  V30 6712 N 650.364 0.662433 1.43002 0
M  V30 6713 C 651.641 0.109096 1.95296 0
M  V30 6714 C 652.021 -1.37313 1.60338 0
M  V30 6715 O 651.369 -2.1032 0.893187 0
M  V30 6716 C 651.579 0.365096 3.47085 0
M  V30 6717 C 652.927 0.274964 4.23709 0
M  V30 6718 O 653.951 0.29816 3.5495 0
M  V30 6719 O 652.81 0.206549 5.4611 0
M  V30 6720 H 649.904 -0.00429724 0.826989 0
M  V30 6721 H 652.45 0.736308 1.52894 0
M  V30 6722 H 651.222 1.39237 3.65689 0
M  V30 6723 H 650.845 -0.294733 3.96506 0
M  V30 6724 N 651.842 -1.52309 0.404946 0
M  V30 6725 C 652.774 -2.24579 -0.45791 0
M  V30 6726 C 653.787 -1.2739 -1.01369 0
M  V30 6727 O 654.976 -1.53363 -0.91335 0
M  V30 6728 C 652.076 -2.9608 -1.64893 0
M  V30 6729 C 651.249 -4.20106 -1.21777 0
M  V30 6730 C 650.308 -4.74468 -2.27523 0
M  V30 6731 O 649.334 -5.37157 -1.88285 0
M  V30 6732 N 650.536 -4.55678 -3.59635 0
M  V30 6733 H 653.301 -2.99265 0.161341 0
M  V30 6734 H 650.862 -1.60228 0.232107 0
M  V30 6735 H 652.854 -3.29344 -2.35191 0
M  V30 6736 H 651.424 -2.24606 -2.17419 0
M  V30 6737 H 650.644 -3.92704 -0.343071 0
M  V30 6738 H 651.932 -5.00658 -0.906596 0
M  V30 6739 H 651.33 -4.05673 -3.94266 0
M  V30 6740 H 649.887 -4.9339 -4.25922 0
M  V30 6741 N 653.32 -0.135238 -1.57019 0
M  V30 6742 C 654.731 0.387521 -1.82634 0
M  V30 6743 C 655.082 1.65528 -1.05332 0
M  V30 6744 O 654.207 2.14381 -0.294926 0
M  V30 6745 C 654.802 0.709852 -3.3128 0
M  V30 6746 C 653.361 1.17718 -3.57518 0
M  V30 6747 C 652.508 0.194183 -2.76619 0
M  V30 6748 H 655.459 -0.360126 -1.5456 0
M  V30 6749 H 655.48 1.5657 -3.46794 0
M  V30 6750 H 654.992 -0.213024 -3.87515 0
M  V30 6751 H 653.093 2.1164 -3.06658 0
M  V30 6752 H 653.206 1.11128 -4.66034 0
M  V30 6753 H 651.57 0.684478 -2.4533 0
M  V30 6754 H 652.353 -0.722076 -3.3562 0
M  V30 6755 N 654.798 1.5699 0.138552 0
M  V30 6756 C 655.745 1.98899 1.17081 0
M  V30 6757 C 656.715 0.857922 1.42228 0
M  V30 6758 O 657.9 1.12065 1.54422 0
M  V30 6759 C 655.04 2.38189 2.4972 0
M  V30 6760 C 654.153 3.64624 2.31674 0
M  V30 6761 C 653.288 3.9298 3.57407 0
M  V30 6762 C 652.327 5.1266 3.34435 0
M  V30 6763 N 651.464 5.36983 4.5232 0
M  V30 6764 H 656.304 2.86881 0.80642 0
M  V30 6765 H 653.841 1.41925 0.386727 0
M  V30 6766 H 655.799 2.59 3.2707 0
M  V30 6767 H 654.429 1.53275 2.84089 0
M  V30 6768 H 653.481 3.51542 1.45337 0
M  V30 6769 H 654.793 4.52131 2.10664 0
M  V30 6770 H 653.947 4.14335 4.43183 0
M  V30 6771 H 652.686 3.03912 3.8143 0
M  V30 6772 H 651.691 4.9117 2.47048 0
M  V30 6773 H 652.916 6.03288 3.11802 0
M  V30 6774 H 650.862 4.50871 4.76499 0
M  V30 6775 H 650.779 6.18775 4.34343 0
M  V30 6776 H 652.047 5.62842 5.39285 0
M  V30 6777 N 656.276 -0.40816 1.52223 0
M  V30 6778 C 657.516 -1.16418 1.68006 0
M  V30 6779 C 657.88 -1.87749 0.401793 0
M  V30 6780 O 659.081 -2.65245 0.435743 0
M  V30 6781 C 657.352 -2.13143 2.86889 0
M  V30 6782 S 658.911 -2.96839 3.2316 0
M  V30 6783 H 655.729 -0.394373 0.5916 0
M  V30 6784 H 658.331 -0.451349 1.90219 0
M  V30 6785 H 657.035 -1.59428 3.78168 0
M  V30 6786 H 656.566 -2.88963 2.66953 0
M  V30 6787 H 658.581 -4.151 2.71857 0
M  V30 6788 N 657.755 -1.42862 -0.66545 0
M  V30 6789 C 658.98 -1.47456 -1.45848 0
M  V30 6790 C 659.405 -0.0900312 -1.87884 0
M  V30 6791 O 658.763 0.913587 -1.56599 0
M  V30 6792 C 658.811 -2.41514 -2.67774 0
M  V30 6793 O 657.915 -1.89296 -3.66389 0
M  V30 6794 H 657.256 -0.499236 -0.437789 0
M  V30 6795 H 659.786 -1.8765 -0.815394 0
M  V30 6796 H 659.796 -2.58409 -3.15735 0
M  V30 6797 H 658.471 -3.42099 -2.36519 0
M  V30 6798 H 657.048 -1.82003 -3.25468 0
M  V30 6799 N 659.233 0.902656 -1.29189 0
M  V30 6800 C 660.644 1.46809 -1.15343 0
M  V30 6801 C 660.995 1.94568 0.252517 0
M  V30 6802 O 660.12 1.83454 1.14777 0
M  V30 6803 C 660.715 2.66829 -2.08776 0
M  V30 6804 C 659.274 3.19518 -1.98961 0
M  V30 6805 C 658.421 1.92212 -1.99874 0
M  V30 6806 H 661.372 0.714282 -1.41717 0
M  V30 6807 H 661.393 3.42465 -1.65826 0
M  V30 6808 H 660.905 2.32039 -3.11094 0
M  V30 6809 H 659.006 3.59008 -0.99721 0
M  V30 6810 H 659.119 3.84016 -2.86477 0
M  V30 6811 H 657.483 2.0979 -1.44431 0
M  V30 6812 H 658.266 1.59702 -3.03891 0
M  V30 6813 N 660.711 1.11618 1.11262 0
M  V30 6814 C 661.621 0.78898 2.20935 0
M  V30 6815 C 662.637 -0.21867 1.7262 0
M  V30 6816 O 663.813 -0.0543826 2.01327 0
M  V30 6817 C 660.878 0.239014 3.45875 0
M  V30 6818 C 659.939 1.3055 4.08968 0
M  V30 6819 C 659.172 0.781687 5.27944 0
M  V30 6820 O 659.395 -0.387605 5.69082 0
M  V30 6821 O 658.329 1.54734 5.81671 0
M  V30 6822 H 662.155 1.70477 2.51339 0
M  V30 6823 H 659.74 0.892203 1.19834 0
M  V30 6824 H 661.622 -0.0632312 4.21353 0
M  V30 6825 H 660.297 -0.649454 3.17118 0
M  V30 6826 H 659.204 1.66079 3.35214 0
M  V30 6827 H 660.537 2.16743 4.41909 0
M  V30 6828 N 662.189 -1.289 0.906776 0
M  V30 6829 C 663.136 -2.2751 0.388313 0
M  V30 6830 C 664.106 -1.57301 -0.533439 0
M  V30 6831 O 665.291 -1.85243 -0.457148 0
M  V30 6832 C 662.431 -3.43091 -0.37181 0
M  V30 6833 C 661.544 -4.28066 0.581647 0
M  V30 6834 C 660.679 -5.30837 -0.19623 0
M  V30 6835 C 659.718 -6.07472 0.751294 0
M  V30 6836 N 658.855 -7.021 0.00737727 0
M  V30 6837 H 663.695 -2.71237 1.23428 0
M  V30 6838 H 661.232 -1.33397 0.619962 0
M  V30 6839 H 663.19 -4.08888 -0.828641 0
M  V30 6840 H 661.82 -3.00374 -1.18218 0
M  V30 6841 H 660.872 -3.62378 1.157 0
M  V30 6842 H 662.184 -4.81382 1.30665 0
M  V30 6843 H 661.338 -6.02485 -0.71394 0
M  V30 6844 H 660.077 -4.78272 -0.954324 0
M  V30 6845 H 659.082 -5.34682 1.28044 0
M  V30 6846 H 660.307 -6.62126 1.50883 0
M  V30 6847 H 658.253 -6.51894 -0.732854 0
M  V30 6848 H 658.17 -7.53004 0.672334 0
M  V30 6849 H 659.438 -7.77956 -0.490365 0
M  V30 6850 N 663.667 -0.670007 -1.42649 0
M  V30 6851 C 664.944 -0.119451 -1.95235 0
M  V30 6852 C 665.324 1.36461 -1.61064 0
M  V30 6853 O 664.672 2.09843 -0.904329 0
M  V30 6854 C 664.882 -0.383498 -3.46887 0
M  V30 6855 C 666.23 -0.297431 -4.23557 0
M  V30 6856 O 667.254 -0.31698 -3.54787 0
M  V30 6857 O 666.113 -0.235507 -5.45992 0
M  V30 6858 H 663.207 -8.85474e-05 -0.827 0
M  V30 6859 H 665.753 -0.744406 -1.52501 0
M  V30 6860 H 664.525 -1.41174 -3.64946 0
M  V30 6861 H 664.148 0.273702 -3.96657 0
M  V30 6862 N 665.145 1.52092 -0.413018 0
M  V30 6863 C 666.393 2.01456 0.161178 0
M  V30 6864 C 666.714 1.30034 1.45314 0
M  V30 6865 O 665.984 0.427435 1.9118 0
M  V30 6866 H 664.564 0.744376 0.0625526 0
M  V30 6867 H 667.226 1.86974 -0.550151 0
M  V30 6868 H 666.322 3.1008 0.354517 0
M  V30 6869 N 666.623 0.143563 1.56945 0
M  V30 6870 C 667.553 -0.7936 2.196 0
M  V30 6871 C 668.534 -1.25955 1.14321 0
M  V30 6872 O 669.719 -1.31773 1.42651 0
M  V30 6873 C 666.849 -2.03424 2.81489 0
M  V30 6874 C 665.803 -1.70519 3.92565 0
M  V30 6875 C 665.129 -3.01817 4.41373 0
M  V30 6876 C 666.429 -0.95449 5.13504 0
M  V30 6877 H 668.123 -0.271423 2.98167 0
M  V30 6878 H 665.669 -0.12911 1.4342 0
M  V30 6879 H 667.622 -2.69463 3.23987 0
M  V30 6880 H 666.346 -2.58008 2.00248 0
M  V30 6881 H 665.005 -1.06859 3.5068 0
M  V30 6882 H 664.653 -3.54386 3.56959 0
M  V30 6883 H 664.353 -2.80565 5.16292 0
M  V30 6884 H 665.877 -3.68934 4.86539 0
M  V30 6885 H 667.291 -1.5169 5.52868 0
M  V30 6886 H 665.688 -0.842035 5.94163 0
M  V30 6887 H 666.758 0.0544033 4.84869 0
M  V30 6888 N 668.101 -1.57061 -0.130224 0
M  V30 6889 C 669.349 -1.83893 -0.838313 0
M  V30 6890 C 669.67 -0.727046 -1.80939 0
M  V30 6891 O 668.94 0.249927 -1.94299 0
M  V30 6892 H 667.52 -0.67846 -0.312573 0
M  V30 6893 H 670.182 -1.94529 -0.120224 0
M  V30 6894 H 669.278 -2.79419 -1.39038 0
M  V30 6895 N 669.579 0.400081 -1.52437 0
M  V30 6896 C 670.804 1.17221 -1.71096 0
M  V30 6897 C 671.229 1.83269 -0.423565 0
M  V30 6898 O 670.587 1.70378 0.619751 0
M  V30 6899 C 670.635 2.20425 -2.85386 0
M  V30 6900 O 669.739 3.26769 -2.51586 0
M  V30 6901 H 669.08 0.341766 -0.569291 0
M  V30 6902 H 671.61 0.467772 -1.99181 0
M  V30 6903 H 671.62 2.64605 -3.10561 0
M  V30 6904 H 670.295 1.71737 -3.78786 0
M  V30 6905 H 668.872 2.87804 -2.37114 0
M  V30 6906 N 671.057 1.43213 0.657864 0
M  V30 6907 C 672.282 1.48227 1.45064 0
M  V30 6908 C 672.707 0.0999939 1.87834 0
M  V30 6909 O 672.065 -0.905269 1.57081 0
M  V30 6910 C 672.113 2.42931 2.6649 0
M  V30 6911 O 671.217 1.91237 3.6538 0
M  V30 6912 H 670.558 0.501551 0.435135 0
M  V30 6913 H 673.088 1.8808 0.805431 0
M  V30 6914 H 673.098 2.6008 3.1436 0
M  V30 6915 H 671.773 3.43348 2.34701 0
M  V30 6916 H 670.35 1.83726 3.24498 0
M  V30 6917 N 672.536 -0.895792 1.29666 0
M  V30 6918 C 673.947 -1.46195 1.1612 0
M  V30 6919 C 674.298 -1.94699 -0.242195 0
M  V30 6920 O 673.423 -1.8406 -1.13802 0
M  V30 6921 C 674.018 -2.65718 2.10189 0
M  V30 6922 C 672.577 -3.18458 2.00653 0
M  V30 6923 C 671.724 -1.91149 2.00891 0
M  V30 6924 H 674.675 -0.706756 1.42094 0
M  V30 6925 H 674.696 -3.4158 1.6764 0
M  V30 6926 H 674.208 -2.30386 3.12321 0
M  V30 6927 H 672.309 -3.58474 1.01623 0
M  V30 6928 H 672.422 -3.82491 2.88509 0
M  V30 6929 H 670.786 -2.09021 1.45542 0
M  V30 6930 H 671.569 -1.58089 3.04734 0
M  V30 6931 N 674.014 -1.12206 -1.10668 0
M  V30 6932 C 675.43 -0.857619 -1.346 0
M  V30 6933 C 675.63 0.513542 -1.94846 0
M  V30 6934 O 674.686 1.26273 -2.18658 0
M  V30 6935 C 675.999 -1.97212 -2.26998 0
M  V30 6936 C 677.547 -2.00272 -2.40542 0
M  V30 6937 C 678.022 -3.10948 -3.36267 0
M  V30 6938 N 679.513 -3.10375 -3.43834 0
M  V30 6939 C 680.248 -3.92651 -4.17867 0
M  V30 6940 N 679.744 -4.84911 -4.94807 0
M  V30 6941 N 681.537 -3.80798 -4.1346 0
M  V30 6942 H 673.688 -2.00558 -0.699306 0
M  V30 6943 H 675.951 -0.872612 -0.370477 0
M  V30 6944 H 675.657 -2.96002 -1.89936 0
M  V30 6945 H 675.531 -1.87521 -3.27286 0
M  V30 6946 H 677.918 -1.02103 -2.76874 0
M  V30 6947 H 677.999 -2.14037 -1.40077 0
M  V30 6948 H 677.643 -4.09348 -3.00661 0
M  V30 6949 H 677.573 -2.94421 -4.36605 0
M  V30 6950 H 680.064 -2.43536 -2.88961 0
M  V30 6951 H 680.377 -5.44207 -5.48688 0
M  V30 6952 H 678.722 -4.88926 -4.93939 0
M  V30 6953 H 681.913 -3.08058 -3.52445 0
M  V30 6954 H 682.086 -4.4515 -4.70898 0
M  V30 6955 N 675.492 1.28418 -0.913599 0
M  V30 6956 C 676.738 1.9527 -0.547484 0
M  V30 6957 C 677.071 1.71745 0.906486 0
M  V30 6958 O 676.346 1.03834 1.64465 0
M  V30 6959 C 676.629 3.49748 -0.857205 0
M  V30 6960 C 676.482 3.82675 -2.3639 0
M  V30 6961 C 677.801 4.3868 -0.353258 0
M  V30 6962 H 674.92 0.709236 -0.200381 0
M  V30 6963 H 677.562 1.51789 -1.14281 0
M  V30 6964 H 675.712 3.86915 -0.350548 0
M  V30 6965 H 677.384 3.55378 -2.94116 0
M  V30 6966 H 675.627 3.29724 -2.81894 0
M  V30 6967 H 676.298 4.90547 -2.53115 0
M  V30 6968 H 678.774 4.08584 -0.787288 0
M  V30 6969 H 677.65 5.45621 -0.599049 0
M  V30 6970 H 677.911 4.35753 0.746413 0
M  V30 6971 N 676.97 0.677563 1.42291 0
M  V30 6972 C 678.198 0.209459 2.05837 0
M  V30 6973 C 678.613 -1.13444 1.50917 0
M  V30 6974 O 677.97 -1.70529 0.65008 0
M  V30 6975 C 678.021 0.138819 3.61233 0
M  V30 6976 O 677.742 1.42962 4.14118 0
M  V30 6977 C 679.243 -0.352449 4.41897 0
M  V30 6978 H 676.463 0.101209 0.663323 0
M  V30 6979 H 679.007 0.925077 1.8238 0
M  V30 6980 H 677.162 -0.527505 3.83792 0
M  V30 6981 H 677.576 1.3048 5.08011 0
M  V30 6982 H 679.05 -0.350778 5.50884 0
M  V30 6983 H 679.527 -1.3882 4.16684 0
M  V30 6984 H 680.133 0.282236 4.24362 0
M  V30 6985 N 678.448 -1.51871 0.421078 0
M  V30 6986 C 679.673 -2.0684 -0.152371 0
M  V30 6987 C 680.098 -1.28802 -1.37083 0
M  V30 6988 O 679.456 -0.321482 -1.78427 0
M  V30 6989 C 679.504 -3.57532 -0.469368 0
M  V30 6990 O 678.608 -3.81818 -1.55848 0
M  V30 6991 H 677.949 -0.663939 -0.00898586 0
M  V30 6992 H 680.479 -1.95674 0.597724 0
M  V30 6993 H 680.489 -4.01515 -0.724553 0
M  V30 6994 H 679.164 -4.13761 0.421276 0
M  V30 6995 H 677.741 -3.49709 -1.29453 0
M  V30 6996 N 679.926 -0.151884 -1.56866 0
M  V30 6997 C 680.873 0.785936 -2.17006 0
M  V30 6998 C 681.843 1.2407 -1.10435 0
M  V30 6999 O 683.028 1.31235 -1.38499 0
M  V30 7000 C 680.168 2.01771 -2.79969 0
M  V30 7001 C 679.281 1.6083 -4.00946 0
M  V30 7002 C 678.416 2.79224 -4.51893 0
M  V30 7003 C 677.455 2.3468 -5.65324 0
M  V30 7004 N 676.592 3.461 -6.10867 0
M  V30 7005 H 681.432 0.266286 -2.96808 0
M  V30 7006 H 678.969 0.11972 -1.46612 0
M  V30 7007 H 680.927 2.73989 -3.14621 0
M  V30 7008 H 679.557 2.51139 -2.02803 0
M  V30 7009 H 678.609 0.783592 -3.72242 0
M  V30 7010 H 679.921 1.24119 -4.83111 0
M  V30 7011 H 679.075 3.59625 -4.88625 0
M  V30 7012 H 677.814 3.19183 -3.68746 0
M  V30 7013 H 676.819 1.52721 -5.28163 0
M  V30 7014 H 678.044 1.95801 -6.5026 0
M  V30 7015 H 675.99 3.85671 -5.30654 0
M  V30 7016 H 675.907 3.1342 -6.87971 0
M  V30 7017 H 677.175 4.26844 -6.52246 0
M  V30 7018 N 681.404 1.57128 0.121893 0
M  V30 7019 C 682.629 1.89254 0.848385 0
M  V30 7020 C 683.054 0.743527 1.72781 0
M  V30 7021 O 682.412 -0.306056 1.78698 0
M  V30 7022 C 682.46 3.20113 1.66012 0
M  V30 7023 O 681.564 3.05815 2.76679 0
M  V30 7024 H 680.905 0.621103 0.234793 0
M  V30 7025 H 683.435 2.0433 0.10516 0
M  V30 7026 H 683.445 3.52761 2.04996 0
M  V30 7027 H 682.12 4.03336 1.01452 0
M  V30 7028 H 680.697 2.84627 2.40918 0
M  V30 7029 N 682.882 -0.391992 1.52647 0
M  V30 7030 C 683.792 -1.503 1.80131 0
M  V30 7031 C 684.808 -1.59825 0.687882 0
M  V30 7032 O 685.984 -1.76218 0.975149 0
M  V30 7033 C 683.049 -2.85863 1.96171 0
M  V30 7034 C 682.11 -2.86084 3.20085 0
M  V30 7035 C 681.343 -4.15181 3.35351 0
M  V30 7036 O 681.566 -5.09981 2.55491 0
M  V30 7037 O 680.5 -4.22603 4.28591 0
M  V30 7038 H 684.326 -1.30007 2.74466 0
M  V30 7039 H 681.911 -0.579539 1.37701 0
M  V30 7040 H 683.793 -3.66236 2.08445 0
M  V30 7041 H 682.468 -3.06189 1.05025 0
M  V30 7042 H 681.375 -2.04504 3.13256 0
M  V30 7043 H 682.708 -2.7071 4.11068 0
M  V30 7044 N 684.36 -1.4356 -0.65026 0
M  V30 7045 C 685.585 -1.48995 -1.44275 0
M  V30 7046 C 686.01 -0.109954 -1.87778 0
M  V30 7047 O 685.368 0.896926 -1.57559 0
M  V30 7048 C 685.416 -2.44341 -2.65198 0
M  V30 7049 O 684.52 -1.93172 -3.6436 0
M  V30 7050 H 683.861 -0.503852 -0.432469 0
M  V30 7051 H 686.391 -1.88504 -0.795446 0
M  V30 7052 H 686.401 -2.61743 -3.12977 0
M  V30 7053 H 685.076 -3.44588 -2.32877 0
M  V30 7054 H 683.653 -1.85445 -3.23519 0
M  V30 7055 N 685.838 0.888903 -1.30139 0
M  V30 7056 C 686.77 1.99972 -1.11999 0
M  V30 7057 C 687.783 1.62673 -0.0643619 0
M  V30 7058 O 688.972 1.75788 -0.309983 0
M  V30 7059 C 686.072 3.31904 -0.685059 0
M  V30 7060 C 685.245 3.97665 -1.82158 0
M  V30 7061 C 684.304 5.07894 -1.37585 0
M  V30 7062 O 683.33 5.2974 -2.08241 0
M  V30 7063 N 684.532 5.7995 -0.252697 0
M  V30 7064 H 687.297 2.16085 -2.07671 0
M  V30 7065 H 684.858 1.06175 -1.22223 0
M  V30 7066 H 686.85 4.03005 -0.369964 0
M  V30 7067 H 685.42 3.12084 0.179507 0
M  V30 7068 H 684.64 3.19787 -2.305 0
M  V30 7069 H 685.928 4.3834 -2.58332 0
M  V30 7070 H 685.326 5.647 0.336141 0
M  V30 7071 H 683.883 6.518 0.00296813 0
M  V30 7072 N 687.317 1.12792 1.10072 0
M  V30 7073 C 688.563 0.886857 1.82381 0
M  V30 7074 C 688.896 -0.58576 1.85155 0
M  V30 7075 O 688.171 -1.43317 1.31493 0
M  V30 7076 C 688.454 1.46703 3.28862 0
M  V30 7077 C 688.307 3.00829 3.34398 0
M  V30 7078 C 689.626 1.12971 4.25353 0
M  V30 7079 H 686.745 0.32362 0.662148 0
M  V30 7080 H 689.387 1.39513 1.28982 0
M  V30 7081 H 687.537 1.03476 3.74466 0
M  V30 7082 H 689.209 3.52764 2.97247 0
M  V30 7083 H 687.452 3.36164 2.74183 0
M  V30 7084 H 688.123 3.36519 4.3756 0
M  V30 7085 H 690.599 1.50313 3.88001 0
M  V30 7086 H 689.475 1.56223 5.26199 0
M  V30 7087 H 689.736 0.0424452 4.4208 0
M  V30 7088 N 688.795 -1.27931 0.920396 0
M  V30 7089 C 690.023 -1.98805 0.573087 0
M  V30 7090 C 690.438 -1.68724 -0.847201 0
M  V30 7091 O 689.795 -0.943699 -1.56207 0
M  V30 7092 C 689.846 -3.52971 0.780633 0
M  V30 7093 O 689.567 -3.81994 2.14504 0
M  V30 7094 C 691.068 -4.411 0.44105 0
M  V30 7095 H 688.288 -0.634651 0.21785 0
M  V30 7096 H 690.832 -1.62965 1.23542 0
M  V30 7097 H 688.987 -3.87048 0.165204 0
M  V30 7098 H 689.401 -4.76609 2.18962 0
M  V30 7099 H 690.875 -5.48312 0.637006 0
M  V30 7100 H 691.352 -4.34758 -0.62306 0
M  V30 7101 H 691.958 -4.12532 1.0343 0
M  V30 7102 N 690.273 -0.685099 -1.4193 0
M  V30 7103 C 691.206 0.0371639 -2.2817 0
M  V30 7104 C 692.184 0.798436 -1.41647 0
M  V30 7105 O 693.368 0.791428 -1.71081 0
M  V30 7106 C 690.495 1.05993 -3.21688 0
M  V30 7107 C 689.541 0.393043 -4.24685 0
M  V30 7108 S 690.374 -0.856921 -5.28599 0
M  V30 7109 C 691.53 0.164508 -6.25684 0
M  V30 7110 H 691.763 -0.694305 -2.89079 0
M  V30 7111 H 689.296 -0.474999 -1.46912 0
M  V30 7112 H 691.254 1.64489 -3.76103 0
M  V30 7113 H 689.915 1.7639 -2.59895 0
M  V30 7114 H 689.108 1.16513 -4.90348 0
M  V30 7115 H 688.71 -0.118589 -3.73812 0
M  V30 7116 H 691.002 1.02106 -6.69762 0
M  V30 7117 H 691.945 -0.457917 -7.06618 0
M  V30 7118 H 692.353 0.514596 -5.6215 0
M  V30 7119 N 691.751 1.51645 -0.429126 0
M  V30 7120 C 692.681 2.30434 0.377148 0
M  V30 7121 C 693.662 1.35493 1.02838 0
M  V30 7122 O 694.847 1.6441 1.03359 0
M  V30 7123 C 691.977 3.14038 1.48315 0
M  V30 7124 C 690.931 4.1719 0.955855 0
M  V30 7125 C 690.257 4.89263 2.15698 0
M  V30 7126 C 691.557 5.223 -0.00402136 0
M  V30 7127 H 693.251 2.98085 -0.280336 0
M  V30 7128 H 690.797 1.43354 -0.136265 0
M  V30 7129 H 692.75 3.67933 2.05435 0
M  V30 7130 H 691.474 2.44193 2.16881 0
M  V30 7131 H 690.133 3.64335 0.406929 0
M  V30 7132 H 689.781 4.15929 2.82864 0
M  V30 7133 H 689.481 5.59009 1.81059 0
M  V30 7134 H 691.005 5.45978 2.73387 0
M  V30 7135 H 692.419 5.71315 0.476607 0
M  V30 7136 H 690.816 5.99525 -0.26258 0
M  V30 7137 H 691.886 4.75638 -0.943236 0
M  V30 7138 N 693.229 0.160201 1.56784 0
M  V30 7139 C 694.161 -0.80564 2.14574 0
M  V30 7140 C 695.174 -1.20154 1.09849 0
M  V30 7141 O 696.363 -1.14333 1.37078 0
M  V30 7142 C 693.463 -2.09434 2.6644 0
M  V30 7143 C 692.636 -1.86375 3.95706 0
M  V30 7144 C 691.695 -2.99358 4.32749 0
M  V30 7145 O 690.721 -2.70475 5.00831 0
M  V30 7146 N 691.923 -4.26867 3.93402 0
M  V30 7147 H 694.688 -0.311644 2.98075 0
M  V30 7148 H 692.249 -0.0229465 1.61884 0
M  V30 7149 H 694.241 -2.84091 2.88226 0
M  V30 7150 H 692.811 -2.50057 1.8759 0
M  V30 7151 H 692.031 -0.956821 3.82412 0
M  V30 7152 H 693.319 -1.68322 4.80151 0
M  V30 7153 H 692.717 -4.53197 3.38569 0
M  V30 7154 H 691.274 -4.98263 4.20211 0
M  V30 7155 N 694.707 -1.5719 -0.113559 0
M  V30 7156 C 696.123 -1.52607 -0.467253 0
M  V30 7157 C 696.323 -0.874058 -1.81556 0
M  V30 7158 O 695.379 -0.458703 -2.48299 0
M  V30 7159 C 696.692 -2.97363 -0.446736 0
M  V30 7160 C 698.24 -3.08482 -0.529903 0
M  V30 7161 C 698.715 -4.54809 -0.539721 0
M  V30 7162 N 700.206 -4.59284 -0.601005 0
M  V30 7163 C 700.941 -5.69927 -0.630138 0
M  V30 7164 N 700.437 -6.90051 -0.616589 0
M  V30 7165 N 702.23 -5.5805 -0.673558 0
M  V30 7166 H 694.381 -1.97958 0.769819 0
M  V30 7167 H 696.644 -0.90428 0.284572 0
M  V30 7168 H 696.35 -3.48458 0.47643 0
M  V30 7169 H 696.224 -3.55086 -1.27254 0
M  V30 7170 H 698.611 -2.57386 -1.44349 0
M  V30 7171 H 698.692 -2.53744 0.323695 0
M  V30 7172 H 698.336 -5.06552 0.369843 0
M  V30 7173 H 698.266 -5.07364 -1.41028 0
M  V30 7174 H 700.757 -3.72822 -0.617419 0
M  V30 7175 H 701.07 -7.70132 -0.641592 0
M  V30 7176 H 699.415 -6.92543 -0.583927 0
M  V30 7177 H 702.606 -4.63112 -0.681544 0
M  V30 7178 H 702.779 -6.44286 -0.692794 0
M  V30 7179 N 696.185 0.383891 -1.52853 0
M  V30 7180 C 697.117 1.48889 -1.74255 0
M  V30 7181 C 698.13 1.50405 -0.623063 0
M  V30 7182 O 699.319 1.54215 -0.898887 0
M  V30 7183 C 696.419 2.87721 -1.79081 0
M  V30 7184 C 695.592 3.10111 -3.08464 0
M  V30 7185 C 694.651 4.28954 -3.0477 0
M  V30 7186 O 693.677 4.25012 -3.78621 0
M  V30 7187 N 694.879 5.35411 -2.24311 0
M  V30 7188 H 697.644 1.30915 -2.69595 0
M  V30 7189 H 695.205 0.573454 -1.51404 0
M  V30 7190 H 697.197 3.65333 -1.7411 0
M  V30 7191 H 695.767 2.99029 -0.911052 0
M  V30 7192 H 694.987 2.20319 -3.26884 0
M  V30 7193 H 696.275 3.21928 -3.94005 0
M  V30 7194 H 695.673 5.41471 -1.63787 0
M  V30 7195 H 694.23 6.1167 -2.25175 0
M  V30 7196 N 697.663 1.43903 0.642637 0
M  V30 7197 C 698.911 1.45791 1.39962 0
M  V30 7198 C 699.232 0.0873144 1.94804 0
M  V30 7199 O 698.502 -0.878825 1.75081 0
M  V30 7200 H 697.082 0.536797 0.519479 0
M  V30 7201 H 699.744 1.7959 0.757189 0
M  V30 7202 H 698.84 2.17665 2.2367 0
M  V30 7203 N 699.141 -0.881989 1.30609 0
M  V30 7204 C 700.388 -1.63405 1.19604 0
M  V30 7205 C 700.716 -1.92905 -0.248574 0
M  V30 7206 O 699.971 -1.55062 -1.19391 0
M  V30 7207 C 700.27 -2.97999 1.97311 0
M  V30 7208 C 699.936 -2.88039 3.46907 0
M  V30 7209 C 698.598 -2.85029 3.877 0
M  V30 7210 C 700.95 -2.75948 4.42156 0
M  V30 7211 C 698.278 -2.67772 5.2203 0
M  V30 7212 C 700.63 -2.60228 5.76597 0
M  V30 7213 C 699.294 -2.55595 6.16626 0
M  V30 7214 H 698.564 -0.597941 0.437662 0
M  V30 7215 H 701.211 -1.02524 1.61744 0
M  V30 7216 H 699.516 -3.62847 1.47815 0
M  V30 7217 H 701.213 -3.55156 1.86186 0
M  V30 7218 H 697.803 -2.91192 3.14492 0
M  V30 7219 H 701.987 -2.77337 4.1158 0
M  V30 7220 H 697.243 -2.62601 5.52133 0
M  V30 7221 H 701.417 -2.49847 6.50038 0
M  V30 7222 H 699.044 -2.41981 7.20659 0
M  V30 7223 N 700.619 -1.13374 -1.09472 0
M  V30 7224 C 701.844 -0.918711 -1.85942 0
M  V30 7225 C 702.269 0.527225 -1.8056 0
M  V30 7226 O 701.627 1.37408 -1.18274 0
M  V30 7227 C 701.675 -1.41056 -3.31867 0
M  V30 7228 O 700.779 -0.595496 -4.08078 0
M  V30 7229 H 700.12 -0.329297 -0.576593 0
M  V30 7230 H 702.65 -1.50829 -1.38245 0
M  V30 7231 H 702.66 -1.41398 -3.82715 0
M  V30 7232 H 701.335 -2.46335 -3.35099 0
M  V30 7233 H 699.912 -0.659911 -3.67014 0
M  V30 7234 N 702.098 1.27442 -0.927168 0
M  V30 7235 C 703.031 2.25177 -0.370232 0
M  V30 7236 C 704.009 1.53612 0.533103 0
M  V30 7237 O 705.193 1.8245 0.47373 0
M  V30 7238 C 702.32 3.35431 0.469411 0
M  V30 7239 C 701.366 4.24888 -0.370419 0
M  V30 7240 S 702.199 5.04852 -1.78562 0
M  V30 7241 C 703.355 6.18592 -0.953651 0
M  V30 7242 H 703.588 2.72069 -1.19858 0
M  V30 7243 H 701.121 1.36089 -0.729316 0
M  V30 7244 H 703.079 3.99404 0.947992 0
M  V30 7245 H 701.74 2.87179 1.27228 0
M  V30 7246 H 700.933 5.03264 0.272226 0
M  V30 7247 H 700.535 3.65709 -0.783153 0
M  V30 7248 H 702.827 6.77235 -0.189408 0
M  V30 7249 H 703.77 6.87132 -1.7104 0
M  V30 7250 H 704.178 5.62318 -0.495897 0
M  V30 7251 N 703.576 0.692616 1.41565 0
M  V30 7252 C 704.992 0.363878 1.55397 0
M  V30 7253 C 705.192 -1.1294 1.66874 0
M  V30 7254 O 704.248 -1.91517 1.64552 0
M  V30 7255 C 705.561 1.10982 2.7947 0
M  V30 7256 C 707.109 1.09387 2.93263 0
M  V30 7257 C 707.584 1.8215 4.20221 0
M  V30 7258 N 709.075 1.79105 4.27172 0
M  V30 7259 C 709.81 2.32247 5.2426 0
M  V30 7260 N 709.306 2.93847 6.27396 0
M  V30 7261 N 711.099 2.22519 5.1618 0
M  V30 7262 H 703.25 1.66116 1.3236 0
M  V30 7263 H 705.513 0.700848 0.63837 0
M  V30 7264 H 705.219 2.1647 2.77188 0
M  V30 7265 H 705.093 0.686492 3.709 0
M  V30 7266 H 707.48 0.0472638 2.95062 0
M  V30 7267 H 707.561 1.55623 2.03015 0
M  V30 7268 H 707.205 2.86789 4.19183 0
M  V30 7269 H 707.135 1.33351 5.09436 0
M  V30 7270 H 709.626 1.34191 3.53272 0
M  V30 7271 H 709.939 3.31972 6.97864 0
M  V30 7272 H 708.284 2.97924 6.27906 0
M  V30 7273 H 711.475 1.7407 4.34531 0
M  V30 7274 H 711.648 2.64239 5.91677 0
M  V30 7275 N 705.054 -1.51416 0.437162 0
M  V30 7276 C 706.282 -2.06503 -0.128045 0
M  V30 7277 C 706.697 -1.30461 -1.36475 0
M  V30 7278 O 706.054 -0.364127 -1.78831 0
M  V30 7279 C 706.105 -3.58683 -0.450437 0
M  V30 7280 O 705.826 -4.31853 0.737186 0
M  V30 7281 C 707.327 -4.30284 -1.06633 0
M  V30 7282 H 704.547 -0.670952 -0.00800269 0
M  V30 7283 H 707.091 -1.94996 0.616193 0
M  V30 7284 H 705.246 -3.70106 -1.14457 0
M  V30 7285 H 705.66 -5.22467 0.461347 0
M  V30 7286 H 707.134 -5.37848 -1.24191 0
M  V30 7287 H 707.611 -3.88564 -2.0473 0
M  V30 7288 H 708.217 -4.23304 -0.411585 0
M  V30 7289 N 706.532 -0.168513 -1.56696 0
M  V30 7290 C 707.462 0.758563 -2.20835 0
M  V30 7291 C 708.443 1.24121 -1.1631 0
M  V30 7292 O 709.628 1.29487 -1.4473 0
M  V30 7293 C 706.758 1.9892 -2.8469 0
M  V30 7294 C 705.712 1.64252 -3.95228 0
M  V30 7295 C 705.038 2.94757 -4.46119 0
M  V30 7296 C 706.338 0.872675 -5.14958 0
M  V30 7297 H 708.032 0.223953 -2.98561 0
M  V30 7298 H 705.578 0.106277 -1.43607 0
M  V30 7299 H 707.531 2.64275 -3.28233 0
M  V30 7300 H 706.255 2.5479 -2.04327 0
M  V30 7301 H 704.914 1.01266 -3.52336 0
M  V30 7302 H 704.562 3.48662 -3.62552 0
M  V30 7303 H 704.262 2.72316 -5.2069 0
M  V30 7304 H 705.786 3.61147 -4.92347 0
M  V30 7305 H 707.2 1.42875 -5.55211 0
M  V30 7306 H 705.597 0.747402 -5.95428 0
M  V30 7307 H 706.667 -0.131535 -4.84722 0
M  V30 7308 N 708.01 1.57248 0.105221 0
M  V30 7309 C 709.257 1.8557 0.810552 0
M  V30 7310 C 709.585 0.755595 1.79223 0
M  V30 7311 O 708.84 -0.251788 1.94073 0
M  V30 7312 C 709.139 3.20437 1.58287 0
M  V30 7313 C 708.805 4.44716 0.744235 0
M  V30 7314 C 707.467 4.78458 0.513013 0
M  V30 7315 C 709.819 5.20953 0.160578 0
M  V30 7316 C 707.147 5.8587 -0.311894 0
M  V30 7317 C 709.499 6.29235 -0.651596 0
M  V30 7318 C 708.163 6.615 -0.893005 0
M  V30 7319 H 707.433 0.67905 0.296602 0
M  V30 7320 H 710.08 1.91363 0.0723968 0
M  V30 7321 H 708.385 3.10283 2.39232 0
M  V30 7322 H 710.082 3.39576 2.13282 0
M  V30 7323 H 706.672 4.18287 0.934555 0
M  V30 7324 H 710.856 4.95226 0.3264 0
M  V30 7325 H 706.112 6.09286 -0.508012 0
M  V30 7326 H 710.286 6.87484 -1.11077 0
M  V30 7327 H 707.913 7.44562 -1.53401 0
M  V30 7328 N 709.488 -0.375779 1.53054 0
M  V30 7329 C 710.728 -1.12828 1.70438 0
M  V30 7330 C 711.092 -1.86854 0.441527 0
M  V30 7331 O 712.293 -2.64261 0.491908 0
M  V30 7332 C 710.564 -2.07009 2.91345 0
M  V30 7333 S 712.123 -2.89917 3.29383 0
M  V30 7334 H 708.941 -0.381736 0.599832 0
M  V30 7335 H 711.543 -0.4109 1.91133 0
M  V30 7336 H 710.247 -1.51371 3.81464 0
M  V30 7337 H 709.778 -2.83236 2.73022 0
M  V30 7338 H 711.793 -4.0924 2.80601 0
M  V30 7339 N 710.966 -1.44241 -0.634997 0
M  V30 7340 C 712.377 -1.41622 -1.21655 0
M  V30 7341 C 712.728 -0.129584 -1.95772 0
M  V30 7342 O 711.853 0.770225 -2.02229 0
M  V30 7343 C 712.448 -2.56557 -2.21278 0
M  V30 7344 C 711.007 -2.57145 -2.7487 0
M  V30 7345 C 710.154 -2.33354 -1.49804 0
M  V30 7346 H 713.105 -1.52878 -0.425905 0
M  V30 7347 H 713.126 -2.29089 -3.03807 0
M  V30 7348 H 712.638 -3.50186 -1.67306 0
M  V30 7349 H 710.739 -1.67447 -3.32855 0
M  V30 7350 H 710.852 -3.55507 -3.21172 0
M  V30 7351 H 709.216 -1.82372 -1.77799 0
M  V30 7352 H 709.999 -3.29092 -0.977402 0
M  V30 7353 N 712.444 0.87505 -1.31075 0
M  V30 7354 C 713.669 1.66583 -1.23551 0
M  V30 7355 C 714.094 1.87067 0.19686 0
M  V30 7356 O 713.452 1.40877 1.1412 0
M  V30 7357 C 713.5 3.01401 -1.97965 0
M  V30 7358 O 712.604 3.90923 -1.31351 0
M  V30 7359 H 711.945 0.508645 -0.426821 0
M  V30 7360 H 714.475 1.09139 -1.7306 0
M  V30 7361 H 714.485 3.51374 -2.07366 0
M  V30 7362 H 713.16 2.85812 -3.02133 0
M  V30 7363 H 711.737 3.49369 -1.30368 0
M  V30 7364 N 713.922 1.13953 1.08869 0
M  V30 7365 C 714.852 0.844824 2.17681 0
M  V30 7366 C 715.833 -0.198213 1.68941 0
M  V30 7367 O 717.018 -0.0559073 1.9412 0
M  V30 7368 C 714.148 0.316325 3.45856 0
M  V30 7369 C 713.102 1.29426 4.07962 0
M  V30 7370 C 712.428 0.625275 5.31031 0
M  V30 7371 C 713.728 2.65484 4.49795 0
M  V30 7372 H 715.422 1.75471 2.42591 0
M  V30 7373 H 712.968 0.845116 1.16592 0
M  V30 7374 H 714.921 0.0977876 4.21287 0
M  V30 7375 H 713.645 -0.628972 3.20486 0
M  V30 7376 H 712.304 1.49889 3.34558 0
M  V30 7377 H 711.952 -0.325678 5.01945 0
M  V30 7378 H 711.652 1.27777 5.73539 0
M  V30 7379 H 713.176 0.416152 6.0918 0
M  V30 7380 H 714.59 2.48957 5.16424 0
M  V30 7381 H 712.987 3.26963 5.03205 0
M  V30 7382 H 714.057 3.22717 3.61914 0
M  V30 7383 N 715.4 -1.26948 0.933913 0
M  V30 7384 C 716.33 -2.29017 0.45534 0
M  V30 7385 C 717.311 -1.62961 -0.487605 0
M  V30 7386 O 718.496 -1.90223 -0.391022 0
M  V30 7387 C 715.626 -3.46112 -0.287015 0
M  V30 7388 C 714.58 -4.24205 0.568682 0
M  V30 7389 C 713.906 -5.3384 -0.303206 0
M  V30 7390 C 715.206 -4.88954 1.83633 0
M  V30 7391 H 716.9 -2.69298 1.30839 0
M  V30 7392 H 714.446 -1.29459 0.630579 0
M  V30 7393 H 716.399 -4.16622 -0.6328 0
M  V30 7394 H 715.123 -3.04765 -1.17414 0
M  V30 7395 H 713.782 -3.5545 0.897261 0
M  V30 7396 H 713.43 -4.88734 -1.18947 0
M  V30 7397 H 713.13 -5.86998 0.265879 0
M  V30 7398 H 714.654 -6.0719 -0.644423 0
M  V30 7399 H 716.068 -5.51717 1.55823 0
M  V30 7400 H 714.465 -5.52198 2.34941 0
M  V30 7401 H 715.535 -4.12305 2.55211 0
M  V30 7402 N 716.879 -0.700114 -1.41195 0
M  V30 7403 C 718.29 -0.307249 -1.84154 0
M  V30 7404 C 718.641 1.15539 -1.58572 0
M  V30 7405 O 717.766 1.88744 -1.05852 0
M  V30 7406 C 718.361 -0.550872 -3.34292 0
M  V30 7407 C 716.92 -0.211877 -3.75803 0
M  V30 7408 C 716.067 -0.830915 -2.64558 0
M  V30 7409 H 719.018 -0.900431 -1.30683 0
M  V30 7410 H 719.039 0.188954 -3.80031 0
M  V30 7411 H 718.551 -1.61548 -3.5288 0
M  V30 7412 H 716.652 0.848283 -3.62815 0
M  V30 7413 H 716.765 -0.67007 -4.74391 0
M  V30 7414 H 715.129 -0.260155 -2.53368 0
M  V30 7415 H 715.912 -1.89948 -2.85963 0
M  V30 7416 N 718.357 1.51182 -0.445186 0
M  V30 7417 C 719.585 2.06568 0.117091 0
M  V30 7418 C 720 1.31182 1.35781 0
M  V30 7419 O 719.357 0.373605 1.78635 0
M  V30 7420 C 719.408 3.58917 0.431408 0
M  V30 7421 O 719.129 4.31456 -0.760078 0
M  V30 7422 C 720.63 4.30843 1.0435 0
M  V30 7423 H 717.85 0.670985 0.00444436 0
M  V30 7424 H 720.394 1.94666 -0.626525 0
M  V30 7425 H 718.549 3.70708 1.12493 0
M  V30 7426 H 718.963 5.22215 -0.489048 0
M  V30 7427 H 720.437 5.38499 1.21337 0
M  V30 7428 H 720.914 3.89644 2.02667 0
M  V30 7429 H 721.52 4.23516 0.38913 0
M  V30 7430 N 719.835 0.176821 1.56605 0
M  V30 7431 C 720.767 -0.782836 2.15417 0
M  V30 7432 C 721.78 -1.18982 1.11117 0
M  V30 7433 O 722.969 -1.12872 1.38283 0
M  V30 7434 C 720.069 -2.06596 2.68647 0
M  V30 7435 C 719.242 -1.82167 3.9766 0
M  V30 7436 C 718.301 -2.94751 4.35899 0
M  V30 7437 O 717.327 -2.65148 5.03672 0
M  V30 7438 N 718.529 -4.2267 3.97907 0
M  V30 7439 H 721.294 -0.280012 2.98389 0
M  V30 7440 H 718.855 -0.00577529 1.61899 0
M  V30 7441 H 720.847 -2.81018 2.91223 0
M  V30 7442 H 719.417 -2.48054 1.90232 0
M  V30 7443 H 718.637 -0.916208 3.83405 0
M  V30 7444 H 719.925 -1.6322 4.81909 0
M  V30 7445 H 719.323 -4.4958 3.43357 0
M  V30 7446 H 717.88 -4.93778 4.25472 0
M  V30 7447 N 721.313 -1.57302 -0.09688 0
M  V30 7448 C 722.245 -1.98618 -1.14384 0
M  V30 7449 C 723.258 -0.888483 -1.36418 0
M  V30 7450 O 724.447 -1.16661 -1.35101 0
M  V30 7451 C 721.547 -2.28838 -2.49973 0
M  V30 7452 C 720.72 -3.60132 -2.48241 0
M  V30 7453 C 719.779 -3.7831 -3.65743 0
M  V30 7454 O 718.805 -4.50183 -3.48316 0
M  V30 7455 N 720.007 -3.18752 -4.85157 0
M  V30 7456 H 722.772 -2.8904 -0.792202 0
M  V30 7457 H 720.333 -1.59356 -0.285883 0
M  V30 7458 H 722.325 -2.38193 -3.27179 0
M  V30 7459 H 720.895 -1.44431 -2.77233 0
M  V30 7460 H 720.115 -3.61763 -1.56593 0
M  V30 7461 H 721.403 -4.46389 -2.4416 0
M  V30 7462 H 720.801 -2.60368 -5.0222 0
M  V30 7463 H 719.358 -3.33595 -5.59962 0
M  V30 7464 N 722.791 0.367657 -1.53252 0
M  V30 7465 C 724.016 1.13566 -1.73544 0
M  V30 7466 C 724.441 1.82329 -0.462344 0
M  V30 7467 O 723.799 1.71655 0.583472 0
M  V30 7468 C 723.847 2.14322 -2.89997 0
M  V30 7469 O 722.951 3.21359 -2.58461 0
M  V30 7470 H 722.292 0.329614 -0.576412 0
M  V30 7471 H 724.822 0.425417 -2.00128 0
M  V30 7472 H 724.832 2.57958 -3.16104 0
M  V30 7473 H 723.507 1.63664 -3.82344 0
M  V30 7474 H 722.084 2.8271 -2.43165 0
M  V30 7475 N 724.269 1.44576 0.627338 0
M  V30 7476 C 725.232 1.51372 1.72102 0
M  V30 7477 C 726.232 0.395329 1.55865 0
M  V30 7478 O 727.422 0.658094 1.61291 0
M  V30 7479 C 724.554 1.39129 3.11217 0
M  V30 7480 H 725.747 2.48798 1.6745 0
M  V30 7481 H 723.3 1.31724 0.841336 0
M  V30 7482 H 724.035 0.428114 3.21462 0
M  V30 7483 H 723.82 2.20229 3.24409 0
M  V30 7484 H 725.31 1.46874 3.90919 0
M  V30 7485 N 725.747 -0.868086 1.31537 0
M  V30 7486 C 726.972 -1.65926 1.24432 0
M  V30 7487 C 727.397 -1.87169 -0.186936 0
M  V30 7488 O 726.755 -1.4148 -1.13371 0
M  V30 7489 C 726.803 -3.00347 1.9956 0
M  V30 7490 O 725.907 -3.90221 1.33422 0
M  V30 7491 H 725.248 -0.506375 0.429512 0
M  V30 7492 H 727.778 -1.0822 1.73637 0
M  V30 7493 H 727.788 -3.50269 2.09226 0
M  V30 7494 H 726.463 -2.84205 3.03645 0
M  V30 7495 H 725.04 -3.48672 1.32219 0
M  V30 7496 N 727.225 -1.14528 -1.08264 0
M  V30 7497 C 728.155 -0.856356 -2.1723 0
M  V30 7498 C 729.136 0.189251 -1.69044 0
M  V30 7499 O 730.321 0.0456119 -1.94146 0
M  V30 7500 C 727.451 -0.334662 -3.45684 0
M  V30 7501 C 726.405 -1.31588 -4.0727 0
M  V30 7502 C 725.731 -0.653428 -5.30692 0
M  V30 7503 C 727.031 -2.67866 -4.48381 0
M  V30 7504 H 728.725 -1.76755 -2.41657 0
M  V30 7505 H 726.271 -0.851287 -1.16143 0
M  V30 7506 H 728.224 -0.120128 -4.21229 0
M  V30 7507 H 726.948 0.611967 -3.20815 0
M  V30 7508 H 725.607 -1.51661 -3.33758 0
M  V30 7509 H 725.255 0.299054 -5.0211 0
M  V30 7510 H 724.955 -1.30817 -5.72853 0
M  V30 7511 H 726.479 -0.448453 -6.08951 0
M  V30 7512 H 727.893 -2.51692 -5.15096 0
M  V30 7513 H 726.29 -3.29627 -5.01464 0
M  V30 7514 H 727.36 -3.24632 -3.60198 0
M  V30 7515 N 728.703 1.26451 -0.940633 0
M  V30 7516 C 729.949 1.94065 -0.58878 0
M  V30 7517 C 730.282 1.7363 0.869853 0
M  V30 7518 O 729.557 1.073 1.62225 0
M  V30 7519 C 729.84 3.47852 -0.931199 0
M  V30 7520 C 729.693 3.77575 -2.44453 0
M  V30 7521 C 731.012 4.37832 -0.446229 0
M  V30 7522 H 728.131 0.704827 -0.21538 0
M  V30 7523 H 730.773 1.4933 -1.17475 0
M  V30 7524 H 728.923 3.86085 -0.432539 0
M  V30 7525 H 730.595 3.49059 -3.01588 0
M  V30 7526 H 728.838 3.23671 -2.88825 0
M  V30 7527 H 729.509 4.85068 -2.63464 0
M  V30 7528 H 731.985 4.06822 -0.873778 0
M  V30 7529 H 730.861 5.44228 -0.714648 0
M  V30 7530 H 731.122 4.37239 0.653815 0
M  V30 7531 N 730.181 0.707592 1.40822 0
M  V30 7532 C 731.406 0.251626 2.05868 0
M  V30 7533 C 731.831 -1.09503 1.5294 0
M  V30 7534 O 731.189 -1.68806 0.661385 0
M  V30 7535 C 731.237 0.23287 3.59847 0
M  V30 7536 O 730.341 -0.788477 4.04792 0
M  V30 7537 H 729.682 0.119936 0.653078 0
M  V30 7538 H 732.212 0.96583 1.80369 0
M  V30 7539 H 732.222 0.0678204 4.07944 0
M  V30 7540 H 730.897 1.21565 3.97737 0
M  V30 7541 H 729.474 -0.591802 3.68174 0
M  V30 7542 N 731.66 -1.50943 0.453197 0
M  V30 7543 C 732.907 -2.02212 -0.107922 0
M  V30 7544 C 733.235 -1.33639 -1.41318 0
M  V30 7545 O 732.49 -0.445154 -1.9057 0
M  V30 7546 C 732.789 -3.55603 -0.357944 0
M  V30 7547 C 732.455 -4.42556 0.863427 0
M  V30 7548 C 731.117 -4.6604 1.19834 0
M  V30 7549 C 733.469 -4.93468 1.67747 0
M  V30 7550 C 730.797 -5.37681 2.34768 0
M  V30 7551 C 733.149 -5.6637 2.81793 0
M  V30 7552 C 731.813 -5.88113 3.1572 0
M  V30 7553 H 731.083 -0.739947 -0.0394916 0
M  V30 7554 H 733.73 -1.81738 0.60363 0
M  V30 7555 H 732.035 -3.74495 -1.15156 0
M  V30 7556 H 733.732 -3.92821 -0.805781 0
M  V30 7557 H 730.322 -4.24485 0.592478 0
M  V30 7558 H 734.506 -4.75194 1.43192 0
M  V30 7559 H 729.762 -5.52727 2.61348 0
M  V30 7560 H 733.936 -6.04806 3.45229 0
M  V30 7561 H 731.563 -6.43404 4.04889 0
M  V30 7562 N 733.138 -0.185124 -1.56509 0
M  V30 7563 C 734.068 0.735098 -2.21627 0
M  V30 7564 C 735.049 1.2288 -1.1762 0
M  V30 7565 O 736.234 1.27945 -1.46095 0
M  V30 7566 C 733.364 1.95889 -2.86783 0
M  V30 7567 C 732.318 1.6005 -3.96948 0
M  V30 7568 C 731.644 2.90009 -4.4922 0
M  V30 7569 C 732.944 0.818008 -5.15855 0
M  V30 7570 H 734.638 0.192274 -2.98782 0
M  V30 7571 H 732.184 0.0910393 -1.43712 0
M  V30 7572 H 734.137 2.60779 -3.31017 0
M  V30 7573 H 732.861 2.52608 -2.07018 0
M  V30 7574 H 731.52 0.975237 -3.5339 0
M  V30 7575 H 731.168 3.44797 -3.6623 0
M  V30 7576 H 730.868 2.66778 -5.23549 0
M  V30 7577 H 732.392 3.55904 -4.9615 0
M  V30 7578 H 733.806 1.36979 -5.56695 0
M  V30 7579 H 732.203 0.684207 -5.96187 0
M  V30 7580 H 733.273 -0.182939 -4.84555 0
M  V30 7581 N 734.616 1.57351 0.0885366 0
M  V30 7582 C 735.862 1.86696 0.791996 0
M  V30 7583 C 736.195 0.775148 1.78059 0
M  V30 7584 O 735.47 -0.216247 1.93294 0
M  V30 7585 C 735.753 3.26684 1.51491 0
M  V30 7586 C 735.606 4.465 0.543858 0
M  V30 7587 C 736.925 3.64664 2.46391 0
M  V30 7588 H 734.044 0.679049 0.286463 0
M  V30 7589 H 736.686 1.89919 0.0554866 0
M  V30 7590 H 734.836 3.24067 2.14273 0
M  V30 7591 H 736.508 4.61235 -0.0774597 0
M  V30 7592 H 734.751 4.33567 -0.142228 0
M  V30 7593 H 735.422 5.41192 1.08696 0
M  V30 7594 H 737.898 3.68267 1.93698 0
M  V30 7595 H 736.774 4.63534 2.93986 0
M  V30 7596 H 737.035 2.93698 3.30445 0
M  V30 7597 N 736.094 -0.359525 1.53444 0
M  V30 7598 C 737.342 -1.09935 1.69584 0
M  V30 7599 C 737.663 -1.89656 0.453371 0
M  V30 7600 O 736.933 -1.8852 -0.53263 0
M  V30 7601 H 735.513 -0.408843 0.625185 0
M  V30 7602 H 738.175 -0.40467 1.90653 0
M  V30 7603 H 737.271 -1.78575 2.55964 0
M  V30 7604 N 737.572 -1.44907 -0.619662 0
M  V30 7605 C 738.819 -1.48292 -1.37898 0
M  V30 7606 C 739.147 -0.119933 -1.9413 0
M  V30 7607 O 738.402 0.879834 -1.74807 0
M  V30 7608 C 738.701 -2.50002 -2.55409 0
M  V30 7609 C 738.367 -3.95031 -2.17397 0
M  V30 7610 C 737.029 -4.34524 -2.06743 0
M  V30 7611 C 739.381 -4.86287 -1.87548 0
M  V30 7612 C 736.709 -5.63183 -1.64445 0
M  V30 7613 C 739.061 -6.15346 -1.4674 0
M  V30 7614 C 737.725 -6.53781 -1.34636 0
M  V30 7615 H 736.995 -0.542638 -0.504603 0
M  V30 7616 H 739.642 -1.78186 -0.701581 0
M  V30 7617 H 737.947 -2.13634 -3.28433 0
M  V30 7618 H 739.644 -2.49864 -3.13639 0
M  V30 7619 H 736.234 -3.63793 -2.26611 0
M  V30 7620 H 740.418 -4.56522 -1.94682 0
M  V30 7621 H 735.674 -5.91769 -1.53687 0
M  V30 7622 H 739.848 -6.85508 -1.22685 0
M  V30 7623 H 737.475 -7.53375 -1.01634 0
M  V30 7624 N 739.05 0.861098 -1.31996 0
M  V30 7625 C 739.98 1.98482 -1.22993 0
M  V30 7626 C 740.961 1.6971 -0.115168 0
M  V30 7627 O 742.146 1.91849 -0.30126 0
M  V30 7628 C 739.276 3.34179 -0.945615 0
M  V30 7629 C 738.23 3.77284 -2.02091 0
M  V30 7630 C 737.556 5.1054 -1.58912 0
M  V30 7631 C 738.856 3.93439 -3.43515 0
M  V30 7632 H 740.55 2.06271 -2.17008 0
M  V30 7633 H 738.096 0.991043 -1.04472 0
M  V30 7634 H 740.049 4.12338 -0.869206 0
M  V30 7635 H 738.773 3.26586 0.0301849 0
M  V30 7636 H 737.432 3.01371 -2.08737 0
M  V30 7637 H 737.08 4.99397 -0.600942 0
M  V30 7638 H 736.78 5.40352 -2.30854 0
M  V30 7639 H 738.304 5.91199 -1.52696 0
M  V30 7640 H 739.718 4.6197 -3.39495 0
M  V30 7641 H 738.115 4.34661 -4.13751 0
M  V30 7642 H 739.185 2.96548 -3.8365 0
M  V30 7643 N 740.528 1.15101 1.07655 0
M  V30 7644 C 741.491 0.847625 2.12951 0
M  V30 7645 C 742.491 -0.151227 1.60087 0
M  V30 7646 O 743.681 0.0780399 1.74025 0
M  V30 7647 C 740.813 0.265 3.39868 0
M  V30 7648 H 742.006 1.7809 2.41296 0
M  V30 7649 H 739.559 0.958072 1.23494 0
M  V30 7650 H 740.294 -0.676625 3.17163 0
M  V30 7651 H 740.079 0.984554 3.79538 0
M  V30 7652 H 741.569 0.0702121 4.17541 0
M  V30 7653 N 742.006 -1.2595 0.947325 0
M  V30 7654 C 743.253 -1.93463 0.598178 0
M  V30 7655 C 743.581 -1.74271 -0.863705 0
M  V30 7656 O 742.836 -1.07684 -1.63409 0
M  V30 7657 C 743.135 -3.46034 0.894158 0
M  V30 7658 C 742.801 -3.85373 2.3409 0
M  V30 7659 C 741.463 -3.95823 2.73637 0
M  V30 7660 C 743.815 -4.04986 3.2808 0
M  V30 7661 C 741.143 -4.23288 4.06257 0
M  V30 7662 C 743.495 -4.3394 4.60303 0
M  V30 7663 C 742.159 -4.42606 4.99656 0
M  V30 7664 H 741.429 -0.707933 0.218889 0
M  V30 7665 H 744.076 -1.4964 1.19499 0
M  V30 7666 H 742.381 -3.9121 0.214874 0
M  V30 7667 H 744.078 -3.96445 0.602698 0
M  V30 7668 H 740.668 -3.7779 2.02417 0
M  V30 7669 H 744.852 -3.96333 2.9872 0
M  V30 7670 H 740.108 -4.28211 4.36401 0
M  V30 7671 H 744.282 -4.48061 5.33118 0
M  V30 7672 H 741.909 -4.63641 6.02446 0
M  V30 7673 N 743.484 -0.715051 -1.40445 0
M  V30 7674 C 744.414 -0.0768699 -2.33373 0
M  V30 7675 C 745.395 0.746109 -1.52863 0
M  V30 7676 O 746.58 0.695142 -1.81332 0
M  V30 7677 C 743.71 0.846014 -3.36838 0
M  V30 7678 C 742.664 0.128694 -4.27806 0
M  V30 7679 C 741.99 1.16726 -5.21804 0
M  V30 7680 C 743.29 -1.01679 -5.12307 0
M  V30 7681 H 744.984 -0.853061 -2.8699 0
M  V30 7682 H 742.53 -0.41167 -1.3799 0
M  V30 7683 H 744.483 1.30185 -4.00786 0
M  V30 7684 H 743.207 1.6541 -2.81615 0
M  V30 7685 H 741.866 -0.307314 -3.6531 0
M  V30 7686 H 741.514 1.96838 -4.62887 0
M  V30 7687 H 741.214 0.692188 -5.83509 0
M  V30 7688 H 742.738 1.62321 -5.88629 0
M  V30 7689 H 744.152 -0.640337 -5.69713 0
M  V30 7690 H 742.549 -1.4202 -5.83053 0
M  V30 7691 H 743.619 -1.84769 -4.48317 0
M  V30 7692 N 744.962 1.50701 -0.461195 0
M  V30 7693 C 746.208 2.02566 0.0973411 0
M  V30 7694 C 746.541 1.3432 1.40257 0
M  V30 7695 O 745.816 0.465692 1.88843 0
M  V30 7696 C 746.099 3.58919 0.291423 0
M  V30 7697 C 745.952 4.37751 -1.03413 0
M  V30 7698 C 747.271 4.27379 1.05048 0
M  V30 7699 H 744.39 0.73622 0.0339026 0
M  V30 7700 H 747.032 1.80115 -0.604855 0
M  V30 7701 H 745.182 3.78179 0.889539 0
M  V30 7702 H 746.854 4.30085 -1.66806 0
M  V30 7703 H 745.097 4.01885 -1.63313 0
M  V30 7704 H 745.768 5.45384 -0.852085 0
M  V30 7705 H 748.244 4.12534 0.543603 0
M  V30 7706 H 747.12 5.36609 1.15506 0
M  V30 7707 H 747.381 3.89868 2.0846 0
M  V30 7708 N 746.441 0.193421 1.56409 0
M  V30 7709 C 747.371 -0.723334 2.22014 0
M  V30 7710 C 748.352 -1.22254 1.1827 0
M  V30 7711 O 749.537 -1.27168 1.46771 0
M  V30 7712 C 746.667 -1.94366 2.87818 0
M  V30 7713 C 745.621 -1.57943 3.97791 0
M  V30 7714 C 744.947 -2.87623 4.50752 0
M  V30 7715 C 746.247 -0.790639 5.16281 0
M  V30 7716 H 747.941 -0.176426 2.9888 0
M  V30 7717 H 745.487 -0.0834166 1.43758 0
M  V30 7718 H 747.44 -2.5902 3.32396 0
M  V30 7719 H 746.164 -2.51507 2.08355 0
M  V30 7720 H 744.823 -0.956482 3.53903 0
M  V30 7721 H 744.471 -3.4285 3.68053 0
M  V30 7722 H 744.171 -2.63998 5.24956 0
M  V30 7723 H 745.695 -3.53268 4.9803 0
M  V30 7724 H 747.109 -1.34024 5.57414 0
M  V30 7725 H 745.506 -0.65258 5.96541 0
M  V30 7726 H 746.576 0.208633 4.84451 0
M  V30 7727 N 747.919 -1.57396 -0.0801906 0
M  V30 7728 C 749.167 -1.86467 -0.779384 0
M  V30 7729 C 749.488 -0.784243 -1.78535 0
M  V30 7730 O 748.758 0.187986 -1.94996 0
M  V30 7731 H 747.338 -0.68806 -0.29083 0
M  V30 7732 H 750 -1.94813 -0.0582749 0
M  V30 7733 H 749.096 -2.83701 -1.30078 0
M  V30 7734 N 749.397 0.351382 -1.53633 0
M  V30 7735 C 750.327 1.43688 -1.84055 0
M  V30 7736 C 751.308 1.55251 -0.695073 0
M  V30 7737 O 752.493 1.69587 -0.946257 0
M  V30 7738 C 749.623 2.80843 -2.04315 0
M  V30 7739 C 748.577 2.84094 -3.20117 0
M  V30 7740 C 747.903 4.2406 -3.25696 0
M  V30 7741 C 749.203 2.50334 -4.58399 0
M  V30 7742 H 750.897 1.18478 -2.74961 0
M  V30 7743 H 748.443 0.568509 -1.32303 0
M  V30 7744 H 750.396 3.56821 -2.2418 0
M  V30 7745 H 749.12 3.07471 -1.10132 0
M  V30 7746 H 747.779 2.10568 -3.00094 0
M  V30 7747 H 747.427 4.47785 -2.29123 0
M  V30 7748 H 747.127 4.27147 -4.03509 0
M  V30 7749 H 748.651 5.0189 -3.47762 0
M  V30 7750 H 750.065 3.16025 -4.78332 0
M  V30 7751 H 748.462 2.64717 -5.38558 0
M  V30 7752 H 749.532 1.45542 -4.62543 0
M  V30 7753 N 750.875 1.45233 0.611969 0
M  V30 7754 C 752.1 1.52767 1.40274 0
M  V30 7755 C 752.525 0.159701 1.87421 0
M  V30 7756 O 751.883 -0.854837 1.59882 0
M  V30 7757 C 751.931 2.51286 2.58626 0
M  V30 7758 O 751.035 2.02764 3.59111 0
M  V30 7759 H 750.376 0.515141 0.418958 0
M  V30 7760 H 752.906 1.90547 0.745188 0
M  V30 7761 H 752.916 2.69949 3.05927 0
M  V30 7762 H 751.591 3.50641 2.23659 0
M  V30 7763 H 750.168 1.93957 3.18489 0
M  V30 7764 N 752.353 -0.854086 1.3245 0
M  V30 7765 C 753.599 -1.61069 1.23225 0
M  V30 7766 C 753.932 -1.93111 -0.205349 0
M  V30 7767 O 753.207 -1.57397 -1.14265 0
M  V30 7768 C 753.49 -2.93065 2.09249 0
M  V30 7769 C 753.343 -2.67801 3.6139 0
M  V30 7770 C 754.662 -3.94341 1.95406 0
M  V30 7771 H 751.781 -0.584449 0.448986 0
M  V30 7772 H 754.423 -0.986189 1.62402 0
M  V30 7773 H 752.573 -3.46364 1.75967 0
M  V30 7774 H 754.245 -2.21052 4.04887 0
M  V30 7775 H 752.488 -2.01756 3.84027 0
M  V30 7776 H 753.159 -3.6179 4.16907 0
M  V30 7777 H 755.635 -3.50301 2.24562 0
M  V30 7778 H 754.511 -4.84555 2.57872 0
M  V30 7779 H 754.772 -4.32382 0.921865 0
M  V30 7780 N 753.831 -1.1567 -1.07043 0
M  V30 7781 C 754.761 -0.879348 -2.16309 0
M  V30 7782 C 755.742 0.171311 -1.69235 0
M  V30 7783 O 756.927 0.0250175 -1.94184 0
M  V30 7784 C 754.057 -0.371307 -3.45309 0
M  V30 7785 C 753.011 -1.359 -4.05851 0
M  V30 7786 C 752.337 -0.709678 -5.29969 0
M  V30 7787 C 753.637 -2.72606 -4.45514 0
M  V30 7788 H 755.331 -1.79308 -2.39768 0
M  V30 7789 H 752.877 -0.863558 -1.15233 0
M  V30 7790 H 754.83 -0.164798 -4.21078 0
M  V30 7791 H 753.554 0.577906 -3.21446 0
M  V30 7792 H 752.213 -1.55193 -3.32131 0
M  V30 7793 H 751.861 0.245782 -5.02399 0
M  V30 7794 H 751.561 -1.36886 -5.71433 0
M  V30 7795 H 753.085 -0.513015 -6.08441 0
M  V30 7796 H 754.499 -2.57141 -5.12398 0
M  V30 7797 H 752.896 -3.34927 -4.97939 0
M  V30 7798 H 753.966 -3.28434 -3.56734 0
M  V30 7799 N 755.309 1.25446 -0.953992 0
M  V30 7800 C 756.537 1.97215 -0.625595 0
M  V30 7801 C 756.952 1.70911 0.802168 0
M  V30 7802 O 756.309 0.984782 1.5365 0
M  V30 7803 C 756.36 3.50777 -0.873943 0
M  V30 7804 O 756.081 3.76173 -2.24556 0
M  V30 7805 C 757.582 4.39776 -0.557845 0
M  V30 7806 H 754.802 0.628652 -0.2346 0
M  V30 7807 H 757.346 1.59632 -1.27819 0
M  V30 7808 H 755.501 3.86474 -0.267765 0
M  V30 7809 H 755.915 4.70636 -2.31522 0
M  V30 7810 H 757.389 5.46431 -0.782157 0
M  V30 7811 H 757.866 4.36257 0.507573 0
M  V30 7812 H 758.472 4.09644 -1.14332 0
M  V30 7813 N 756.787 0.722489 1.40064 0
M  V30 7814 C 758.015 0.274838 2.05066 0
M  V30 7815 C 758.43 -1.08586 1.54449 0
M  V30 7816 O 757.787 -1.68375 0.704003 0
M  V30 7817 C 757.838 0.253673 3.60609 0
M  V30 7818 O 757.559 1.56064 4.0936 0
M  V30 7819 C 759.06 -0.211684 4.42794 0
M  V30 7820 H 756.28 0.12226 0.659768 0
M  V30 7821 H 758.824 0.982632 1.79345 0
M  V30 7822 H 756.979 -0.405137 3.85276 0
M  V30 7823 H 757.393 1.46576 5.03603 0
M  V30 7824 H 758.867 -0.175341 5.51721 0
M  V30 7825 H 759.344 -1.25493 4.2089 0
M  V30 7826 H 759.95 0.4171 4.2325 0
M  V30 7827 N 758.265 -1.50454 0.469181 0
M  V30 7828 C 759.495 -2.06429 -0.0840913 0
M  V30 7829 C 759.903 -1.3334 -1.34227 0
M  V30 7830 O 759.246 -0.395656 -1.79389 0
M  V30 7831 C 759.308 -3.56797 -0.440049 0
M  V30 7832 C 758.972 -4.51359 0.715838 0
M  V30 7833 C 759.969 -4.94754 1.59732 0
M  V30 7834 C 757.654 -4.94069 0.905621 0
M  V30 7835 C 759.648 -5.79564 2.653 0
M  V30 7836 C 757.335 -5.78662 1.96453 0
M  V30 7837 C 758.333 -6.21311 2.83658 0
M  V30 7838 O 758.021 -7.04218 3.87727 0
M  V30 7839 H 757.753 -0.675994 0.00289751 0
M  V30 7840 H 760.307 -1.94629 0.656417 0
M  V30 7841 H 758.537 -3.66492 -1.23372 0
M  V30 7842 H 760.226 -3.95145 -0.928181 0
M  V30 7843 H 760.992 -4.62428 1.46237 0
M  V30 7844 H 756.871 -4.60394 0.236326 0
M  V30 7845 H 760.415 -6.12774 3.33398 0
M  V30 7846 H 756.312 -6.10401 2.09955 0
M  V30 7847 H 757.08 -7.22464 3.84692 0
M  V30 7848 N 759.743 -0.201713 -1.56304 0
M  V30 7849 C 760.991 0.434447 -1.97375 0
M  V30 7850 C 761.312 1.61692 -1.08998 0
M  V30 7851 O 760.582 1.95223 -0.162682 0
M  V30 7852 H 759.162 0.163497 -0.728888 0
M  V30 7853 H 761.824 -0.289988 -1.92731 0
M  V30 7854 H 760.92 0.774136 -3.02347 0
M  V30 7855 N 761.222 1.57436 0.0718424 0
M  V30 7856 C 762.468 1.87525 0.772149 0
M  V30 7857 C 762.801 0.79399 1.77227 0
M  V30 7858 O 762.076 -0.195733 1.93513 0
M  V30 7859 C 762.359 3.28272 1.48018 0
M  V30 7860 C 762.212 4.47052 0.49647 0
M  V30 7861 C 763.531 3.67256 2.42509 0
M  V30 7862 H 760.65 0.682049 0.279245 0
M  V30 7863 H 763.292 1.89967 0.03534 0
M  V30 7864 H 761.442 3.26321 2.10824 0
M  V30 7865 H 763.114 4.61127 -0.126375 0
M  V30 7866 H 761.357 4.33392 -0.188205 0
M  V30 7867 H 762.028 5.42315 1.02949 0
M  V30 7868 H 764.504 3.70301 1.89781 0
M  V30 7869 H 763.38 4.66626 2.89053 0
M  V30 7870 H 763.641 2.97186 3.27312 0
M  V30 7871 N 762.7 -0.34323 1.53817 0
M  V30 7872 C 763.65 -1.42217 1.78208 0
M  V30 7873 C 764.634 -1.4774 0.637304 0
M  V30 7874 O 765.826 -1.52605 0.896705 0
M  V30 7875 C 762.955 -2.79354 1.9954 0
M  V30 7876 C 762.041 -2.78222 3.20084 0
M  V30 7877 N 762.432 -2.46719 4.41547 0
M  V30 7878 C 760.73 -3.09368 3.21259 0
M  V30 7879 C 761.431 -2.53828 5.23399 0
M  V30 7880 N 760.407 -2.89464 4.60121 0
M  V30 7881 H 764.209 -1.16759 2.69712 0
M  V30 7882 H 761.723 -0.551592 1.52746 0
M  V30 7883 H 763.72 -3.57095 2.15148 0
M  V30 7884 H 762.38 -3.05759 1.09278 0
M  V30 7885 H 763.391 -2.19912 4.68891 0
M  V30 7886 H 760.068 -3.40942 2.40966 0
M  V30 7887 H 761.458 -2.32629 6.30344 0
M  V30 7888 N 764.178 -1.45556 -0.604258 0
M  V30 7889 C 765.141 -1.54091 -1.69672 0
M  V30 7890 C 766.141 -0.420076 -1.55216 0
M  V30 7891 O 767.331 -0.683671 -1.60224 0
M  V30 7892 C 764.463 -1.44063 -3.08964 0
M  V30 7893 H 765.656 -2.51431 -1.6347 0
M  V30 7894 H 763.209 -1.33046 -0.820273 0
M  V30 7895 H 763.944 -0.479201 -3.2074 0
M  V30 7896 H 763.729 -2.25362 -3.20865 0
M  V30 7897 H 765.219 -1.53075 -3.88533 0
M  V30 7898 N 765.656 0.84705 -1.32902 0
M  V30 7899 C 766.905 1.59667 -1.23245 0
M  V30 7900 C 767.218 1.94551 0.202349 0
M  V30 7901 O 768.424 2.68218 0.420847 0
M  V30 7902 C 766.88 2.8795 -2.15901 0
M  V30 7903 C 766.488 2.60461 -3.64505 0
M  V30 7904 C 768.232 3.65968 -2.15098 0
M  V30 7905 C 766.139 3.84791 -4.49099 0
M  V30 7906 H 765.069 0.599167 -0.457728 0
M  V30 7907 H 767.72 0.934662 -1.57912 0
M  V30 7908 H 766.102 3.55648 -1.74157 0
M  V30 7909 H 767.276 2.01026 -4.14639 0
M  V30 7910 H 765.591 1.9576 -3.67515 0
M  V30 7911 H 768.188 4.58241 -2.75534 0
M  V30 7912 H 768.531 4.00275 -1.14392 0
M  V30 7913 H 769.064 3.05184 -2.55162 0
M  V30 7914 H 765.803 3.55621 -5.50649 0
M  V30 7915 H 765.323 4.43594 -4.03713 0
M  V30 7916 H 767.002 4.52454 -4.62487 0
M  V30 7917 N 767.134 1.16236 1.06428 0
M  V30 7918 C 768.362 0.967184 1.82902 0
M  V30 7919 C 768.777 -0.484601 1.82475 0
M  V30 7920 O 768.134 -1.33631 1.24294 0
M  V30 7921 C 768.185 1.48534 3.29576 0
M  V30 7922 O 767.906 2.88026 3.3011 0
M  V30 7923 C 769.407 1.33298 4.22784 0
M  V30 7924 H 766.627 0.342923 0.576754 0
M  V30 7925 H 769.171 1.54232 1.34286 0
M  V30 7926 H 767.326 0.952513 3.75508 0
M  V30 7927 H 767.74 3.11721 4.21818 0
M  V30 7928 H 769.214 1.74385 5.23731 0
M  V30 7929 H 769.691 0.278356 4.38317 0
M  V30 7930 H 770.297 1.85535 3.82697 0
M  V30 7931 N 768.612 -1.24939 0.960631 0
M  V30 7932 C 770.028 -1.45039 0.666018 0
M  V30 7933 C 770.228 -1.86021 -0.774501 0
M  V30 7934 O 769.284 -1.99392 -1.54916 0
M  V30 7935 C 770.597 -2.51775 1.64408 0
M  V30 7936 C 772.145 -2.6561 1.65592 0
M  V30 7937 C 772.62 -3.75536 2.62177 0
M  V30 7938 N 774.111 -3.82954 2.60577 0
M  V30 7939 C 774.846 -4.67517 3.31987 0
M  V30 7940 N 774.342 -5.56321 4.1289 0
M  V30 7941 N 776.135 -4.61535 3.20845 0
M  V30 7942 H 768.286 -0.96632 1.89145 0
M  V30 7943 H 770.549 -0.486034 0.813926 0
M  V30 7944 H 770.255 -2.28534 2.67329 0
M  V30 7945 H 770.129 -3.49804 1.41128 0
M  V30 7946 H 772.516 -2.88212 0.633846 0
M  V30 7947 H 772.597 -1.67962 1.92931 0
M  V30 7948 H 772.241 -3.53684 3.64514 0
M  V30 7949 H 772.171 -4.72682 2.32119 0
M  V30 7950 H 774.662 -3.19478 2.01847 0
M  V30 7951 H 774.975 -6.17787 4.64283 0
M  V30 7952 H 773.32 -5.5601 4.16987 0
M  V30 7953 H 776.511 -3.91169 2.57108 0
M  V30 7954 H 776.684 -5.27214 3.76762 0
M  V30 7955 N 770.09 -0.729906 -1.39679 0
M  V30 7956 C 771.02 -0.101618 -2.33279 0
M  V30 7957 C 772.001 0.729854 -1.53646 0
M  V30 7958 O 773.186 0.67587 -1.82059 0
M  V30 7959 C 770.316 0.81024 -3.37716 0
M  V30 7960 C 769.27 0.0833126 -4.27919 0
M  V30 7961 C 768.596 1.11185 -5.23012 0
M  V30 7962 C 769.896 -1.07107 -5.112 0
M  V30 7963 H 771.59 -0.883452 -2.86069 0
M  V30 7964 H 769.136 -0.426283 -1.37546 0
M  V30 7965 H 771.089 1.25927 -4.02145 0
M  V30 7966 H 769.813 1.62413 -2.83354 0
M  V30 7967 H 768.472 -0.346043 -3.64963 0
M  V30 7968 H 768.12 1.91917 -4.64948 0
M  V30 7969 H 767.82 0.63026 -5.8421 0
M  V30 7970 H 769.344 1.56068 -5.90318 0
M  V30 7971 H 770.758 -0.700726 -5.69002 0
M  V30 7972 H 769.155 -1.48196 -5.81514 0
M  V30 7973 H 770.225 -1.89513 -4.46332 0
M  V30 7974 N 771.568 1.50203 -0.477153 0
M  V30 7975 C 772.478 2.32421 0.319027 0
M  V30 7976 C 773.494 1.43075 0.990233 0
M  V30 7977 O 774.67 1.76123 0.976873 0
M  V30 7978 C 771.735 3.17909 1.38328 0
M  V30 7979 C 770.796 4.23082 0.728036 0
M  V30 7980 C 770.029 5.04484 1.74158 0
M  V30 7981 O 770.252 4.8705 2.96881 0
M  V30 7982 O 769.186 5.8747 1.31006 0
M  V30 7983 H 773.012 3.01638 -0.353281 0
M  V30 7984 H 770.597 1.47478 -0.238891 0
M  V30 7985 H 772.479 3.70937 1.9996 0
M  V30 7986 H 771.154 2.51413 2.03895 0
M  V30 7987 H 770.061 3.7403 0.07261 0
M  V30 7988 H 771.394 4.92065 0.115216 0
M  V30 7989 N 773.046 0.209999 1.56195 0
M  V30 7990 C 774.009 -0.691232 2.18528 0
M  V30 7991 C 775.009 -1.13013 1.14388 0
M  V30 7992 O 776.199 -1.04081 1.39688 0
M  V30 7993 C 773.331 -1.94551 2.79934 0
M  V30 7994 H 774.524 -0.147953 2.99535 0
M  V30 7995 H 772.077 -0.0396243 1.5625 0
M  V30 7996 H 772.812 -2.53094 2.02766 0
M  V30 7997 H 772.597 -1.63938 3.56184 0
M  V30 7998 H 774.087 -2.58785 3.2775 0
M  V30 7999 N 774.524 -1.57472 -0.0634922 0
M  V30 8000 C 775.77 -1.88792 -0.756903 0
M  V30 8001 C 776.125 -0.804679 -1.74765 0
M  V30 8002 O 775.418 0.19033 -1.90652 0
M  V30 8003 C 775.612 -3.24521 -1.49736 0
M  V30 8004 C 775.441 -4.45946 -0.579833 0
M  V30 8005 C 774.211 -5.04848 -0.213667 0
M  V30 8006 C 776.409 -5.14143 0.12703 0
M  V30 8007 N 774.391 -6.09795 0.708712 0
M  V30 8008 C 775.762 -6.1334 0.906295 0
M  V30 8009 C 777.817 -4.97508 0.197625 0
M  V30 8010 C 776.52 -6.97697 1.74961 0
M  V30 8011 C 778.546 -5.82398 1.02794 0
M  V30 8012 C 777.908 -6.81139 1.79523 0
M  V30 8013 H 774.007 -0.740235 -0.252142 0
M  V30 8014 H 776.591 -1.94692 -0.0181026 0
M  V30 8015 H 774.762 -3.19615 -2.20683 0
M  V30 8016 H 776.494 -3.43464 -2.14044 0
M  V30 8017 H 773.249 -4.70177 -0.568357 0
M  V30 8018 H 773.673 -6.66929 1.16339 0
M  V30 8019 H 778.315 -4.21077 -0.381261 0
M  V30 8020 H 776.033 -7.73496 2.33943 0
M  V30 8021 H 779.619 -5.71581 1.08565 0
M  V30 8022 H 778.499 -7.45687 2.42736 0
M  V30 8023 N 776.003 0.335068 -1.53997 0
M  V30 8024 C 777.228 1.09859 -1.75914 0
M  V30 8025 C 777.653 1.81308 -0.500915 0
M  V30 8026 O 777.011 1.72854 0.54693 0
M  V30 8027 C 777.059 2.08122 -2.94478 0
M  V30 8028 O 776.163 3.15805 -2.65219 0
M  V30 8029 H 775.504 0.317313 -0.583274 0
M  V30 8030 H 778.034 0.382872 -2.00986 0
M  V30 8031 H 778.044 2.51195 -3.21504 0
M  V30 8032 H 776.719 1.55517 -3.8573 0
M  V30 8033 H 775.296 2.77489 -2.49107 0
M  V30 8034 N 777.481 1.45874 0.596531 0
M  V30 8035 C 778.411 1.5824 1.71705 0
M  V30 8036 C 779.392 0.433366 1.64487 0
M  V30 8037 O 780.577 0.657895 1.82717 0
M  V30 8038 C 777.707 1.55927 3.10329 0
M  V30 8039 C 776.661 2.69659 3.32367 0
M  V30 8040 C 775.987 2.52403 4.71377 0
M  V30 8041 C 777.287 4.11591 3.21544 0
M  V30 8042 H 778.981 2.52035 1.61613 0
M  V30 8043 H 776.527 1.21297 0.776082 0
M  V30 8044 H 778.48 1.63173 3.88526 0
M  V30 8045 H 777.204 0.586674 3.21288 0
M  V30 8046 H 775.863 2.61859 2.56564 0
M  V30 8047 H 775.511 1.53258 4.79083 0
M  V30 8048 H 775.211 3.28679 4.87077 0
M  V30 8049 H 776.735 2.6152 5.5176 0
M  V30 8050 H 778.149 4.20576 3.89601 0
M  V30 8051 H 776.546 4.88344 3.4877 0
M  V30 8052 H 777.616 4.32719 2.1882 0
M  V30 8053 N 778.959 -0.83999 1.33349 0
M  V30 8054 C 779.922 -1.93128 1.23426 0
M  V30 8055 C 780.922 -1.60065 0.153599 0
M  V30 8056 O 782.112 -1.69425 0.405049 0
M  V30 8057 C 779.244 -3.28761 0.901622 0
M  V30 8058 H 780.437 -2.03352 2.20427 0
M  V30 8059 H 777.99 -1.03194 1.17391 0
M  V30 8060 H 778.725 -3.24233 -0.0659337 0
M  V30 8061 H 778.51 -3.54138 1.68311 0
M  V30 8062 H 780 -4.08714 0.856913 0
M  V30 8063 N 780.437 -1.16799 -1.0581 0
M  V30 8064 C 781.367 -0.902241 -2.15364 0
M  V30 8065 C 782.348 0.153351 -1.69407 0
M  V30 8066 O 783.533 0.00442032 -1.94199 0
M  V30 8067 C 780.663 -0.407911 -3.44896 0
M  V30 8068 C 779.617 -1.40197 -4.04387 0
M  V30 8069 C 778.943 -0.765848 -5.29187 0
M  V30 8070 C 780.243 -2.77316 -4.42598 0
M  V30 8071 H 781.937 -1.81841 -2.37853 0
M  V30 8072 H 779.483 -0.875731 -1.14311 0
M  V30 8073 H 781.436 -0.20945 -4.20879 0
M  V30 8074 H 780.16 0.54378 -3.22041 0
M  V30 8075 H 778.819 -1.58707 -3.30466 0
M  V30 8076 H 778.467 0.192482 -5.02632 0
M  V30 8077 H 778.167 -1.42939 -5.69949 0
M  V30 8078 H 779.691 -0.577519 -6.07863 0
M  V30 8079 H 781.105 -2.62561 -5.09642 0
M  V30 8080 H 779.502 -3.4019 -4.94359 0
M  V30 8081 H 780.572 -3.32199 -3.53231 0
M  V30 8082 N 781.915 1.24427 -0.967243 0
M  V30 8083 C 782.845 2.2773 -0.515899 0
M  V30 8084 C 783.826 1.64197 0.444227 0
M  V30 8085 O 785.011 1.91193 0.340451 0
M  V30 8086 C 782.141 3.46751 0.195149 0
M  V30 8087 C 781.095 4.22548 -0.680953 0
M  V30 8088 C 780.421 5.34456 0.161561 0
M  V30 8089 C 781.721 4.83914 -1.96532 0
M  V30 8090 H 783.415 2.65735 -1.37933 0
M  V30 8091 H 780.961 1.27742 -0.664681 0
M  V30 8092 H 782.914 4.18153 0.522117 0
M  V30 8093 H 781.638 3.07771 1.09292 0
M  V30 8094 H 780.297 3.52946 -0.991186 0
M  V30 8095 H 779.945 4.91716 1.05947 0
M  V30 8096 H 779.645 5.86087 -0.421418 0
M  V30 8097 H 781.169 6.08685 0.483211 0
M  V30 8098 H 782.583 5.47392 -1.70396 0
M  V30 8099 H 780.98 5.45775 -2.49499 0
M  V30 8100 H 782.05 4.05393 -2.66053 0
M  V30 8101 N 783.393 0.737304 1.3929 0
M  V30 8102 C 784.356 0.10731 2.28949 0
M  V30 8103 C 785.356 -0.664716 1.46418 0
M  V30 8104 O 786.546 -0.493392 1.67067 0
M  V30 8105 C 783.678 -0.857145 3.29948 0
M  V30 8106 H 784.871 0.89725 2.86163 0
M  V30 8107 H 782.424 0.503279 1.47976 0
M  V30 8108 H 783.159 -1.67336 2.77794 0
M  V30 8109 H 782.944 -0.306167 3.90903 0
M  V30 8110 H 784.434 -1.29444 3.97031 0
M  V30 8111 N 784.871 -1.49948 0.485112 0
M  V30 8112 C 785.801 -2.31675 -0.291364 0
M  V30 8113 C 786.782 -1.39216 -0.977383 0
M  V30 8114 O 787.967 -1.68133 -0.971855 0
M  V30 8115 C 785.097 -3.19326 -1.36558 0
M  V30 8116 C 784.051 -4.2045 -0.800359 0
M  V30 8117 C 783.377 -4.96931 -1.97391 0
M  V30 8118 C 784.677 -5.21925 0.197867 0
M  V30 8119 H 786.371 -2.96839 0.390775 0
M  V30 8120 H 783.917 -1.42749 0.189375 0
M  V30 8121 H 785.87 -3.75304 -1.91638 0
M  V30 8122 H 784.594 -2.52074 -2.07668 0
M  V30 8123 H 783.253 -3.65594 -0.271428 0
M  V30 8124 H 782.901 -4.26141 -2.67232 0
M  V30 8125 H 782.601 -5.65344 -1.60187 0
M  V30 8126 H 784.125 -5.55749 -2.52935 0
M  V30 8127 H 785.539 -5.72691 -0.264239 0
M  V30 8128 H 783.936 -5.98138 0.484908 0
M  V30 8129 H 785.006 -4.71809 1.11912 0
M  V30 8130 N 786.349 -0.21828 -1.56081 0
M  V30 8131 C 787.596 0.414307 -1.98216 0
M  V30 8132 C 787.924 1.60005 -1.10584 0
M  V30 8133 O 787.179 1.95124 -0.150043 0
M  V30 8134 C 787.478 0.894782 -3.46018 0
M  V30 8135 C 787.144 -0.180083 -4.5054 0
M  V30 8136 C 785.806 -0.475367 -4.78846 0
M  V30 8137 C 788.158 -0.907191 -5.13244 0
M  V30 8138 C 785.486 -1.50233 -5.67139 0
M  V30 8139 C 787.838 -1.92347 -6.02649 0
M  V30 8140 C 786.502 -2.22571 -6.293 0
M  V30 8141 H 785.772 0.151606 -0.725325 0
M  V30 8142 H 788.419 -0.320113 -1.88806 0
M  V30 8143 H 786.724 1.7079 -3.52616 0
M  V30 8144 H 788.421 1.39403 -3.75989 0
M  V30 8145 H 785.011 0.06022 -4.28558 0
M  V30 8146 H 789.195 -0.692303 -4.91448 0
M  V30 8147 H 784.451 -1.74215 -5.86054 0
M  V30 8148 H 788.625 -2.49197 -6.50288 0
M  V30 8149 H 786.252 -3.0229 -6.97513 0
M  V30 8150 N 787.827 1.57504 0.0551401 0
M  V30 8151 C 788.757 2.07864 1.06372 0
M  V30 8152 C 789.738 0.975565 1.39344 0
M  V30 8153 O 790.923 1.24929 1.48682 0
M  V30 8154 C 788.053 2.53643 2.3724 0
M  V30 8155 C 787.007 3.67978 2.18578 0
M  V30 8156 C 786.333 3.9987 3.54976 0
M  V30 8157 C 787.633 4.97405 1.59329 0
M  V30 8158 H 789.327 2.92379 0.644595 0
M  V30 8159 H 786.873 1.40654 0.308619 0
M  V30 8160 H 788.826 2.8749 3.08103 0
M  V30 8161 H 787.55 1.66177 2.81163 0
M  V30 8162 H 786.209 3.3444 1.50152 0
M  V30 8163 H 785.857 3.0951 3.965 0
M  V30 8164 H 785.557 4.76867 3.43324 0
M  V30 8165 H 787.081 4.36228 4.27244 0
M  V30 8166 H 788.495 5.29375 2.20078 0
M  V30 8167 H 786.892 5.78837 1.58327 0
M  V30 8168 H 787.962 4.81697 0.55638 0
M  V30 8169 N 789.305 -0.326896 1.54172 0
M  V30 8170 C 790.551 -1.06681 1.72473 0
M  V30 8171 C 790.884 -1.87779 0.49523 0
M  V30 8172 O 790.159 -1.87754 -0.507803 0
M  V30 8173 C 790.442 -1.99429 2.99834 0
M  V30 8174 C 790.295 -1.21682 4.33028 0
M  V30 8175 C 791.614 -2.99002 3.22933 0
M  V30 8176 H 788.733 -0.386438 0.627563 0
M  V30 8177 H 791.375 -0.343779 1.86864 0
M  V30 8178 H 789.525 -2.61081 2.87696 0
M  V30 8179 H 791.197 -0.625153 4.57044 0
M  V30 8180 H 789.44 -0.519045 4.30684 0
M  V30 8181 H 790.111 -1.89766 5.18356 0
M  V30 8182 H 792.587 -2.4747 3.34511 0
M  V30 8183 H 791.463 -3.61085 4.13412 0
M  V30 8184 H 791.724 -3.71281 2.40006 0
M  V30 8185 N 790.784 -1.46188 -0.588786 0
M  V30 8186 C 791.714 -1.59148 -1.70863 0
M  V30 8187 C 792.695 -0.442083 -1.64255 0
M  V30 8188 O 793.88 -0.667575 -1.82365 0
M  V30 8189 C 791.01 -1.5757 -3.09498 0
M  V30 8190 C 789.964 -2.71418 -3.30932 0
M  V30 8191 C 789.29 -2.549 -4.70032 0
M  V30 8192 C 790.59 -4.1329 -3.19356 0
M  V30 8193 H 792.284 -2.52889 -1.60274 0
M  V30 8194 H 789.83 -1.21707 -0.769638 0
M  V30 8195 H 791.783 -1.65231 -3.87655 0
M  V30 8196 H 790.507 -0.603705 -3.20972 0
M  V30 8197 H 789.166 -2.63216 -2.55172 0
M  V30 8198 H 788.814 -1.55797 -4.78264 0
M  V30 8199 H 788.514 -3.31257 -4.85327 0
M  V30 8200 H 790.038 -2.64443 -5.50366 0
M  V30 8201 H 791.452 -4.22636 -3.87365 0
M  V30 8202 H 789.849 -4.90187 -3.46175 0
M  V30 8203 H 790.919 -4.33874 -2.16522 0
M  V30 8204 N 792.262 0.832906 -1.33792 0
M  V30 8205 C 793.509 1.58853 -1.25586 0
M  V30 8206 C 793.837 1.93695 0.176807 0
M  V30 8207 O 793.092 1.59386 1.13554 0
M  V30 8208 C 793.391 2.9047 -2.08235 0
M  V30 8209 C 793.057 2.74965 -3.57358 0
M  V30 8210 C 791.719 2.70444 -3.98012 0
M  V30 8211 C 794.071 2.59347 -4.52093 0
M  V30 8212 C 791.399 2.48212 -5.31608 0
M  V30 8213 C 793.751 2.38649 -5.85858 0
M  V30 8214 C 792.415 2.32533 -6.25687 0
M  V30 8215 H 791.685 0.581285 -0.459553 0
M  V30 8216 H 794.332 0.964501 -1.65438 0
M  V30 8217 H 792.637 3.57111 -1.6118 0
M  V30 8218 H 794.334 3.48001 -1.99239 0
M  V30 8219 H 790.924 2.79319 -3.25083 0
M  V30 8220 H 795.108 2.6187 -4.2159 0
M  V30 8221 H 790.364 2.41929 -5.61498 0
M  V30 8222 H 794.538 2.25549 -6.58863 0
M  V30 8223 H 792.165 2.15067 -7.29143 0
M  V30 8224 N 793.74 1.17359 1.05189 0
M  V30 8225 C 794.986 0.963413 1.78455 0
M  V30 8226 C 795.319 -0.506703 1.87473 0
M  V30 8227 O 794.594 -1.37611 1.37453 0
M  V30 8228 C 794.877 1.60519 3.22344 0
M  V30 8229 C 794.73 3.14741 3.21338 0
M  V30 8230 C 796.049 1.3091 4.20179 0
M  V30 8231 H 793.168 0.351412 0.647826 0
M  V30 8232 H 795.81 1.44858 1.22948 0
M  V30 8233 H 793.96 1.19265 3.69741 0
M  V30 8234 H 795.632 3.65053 2.82017 0
M  V30 8235 H 793.875 3.4749 2.59679 0
M  V30 8236 H 794.546 3.54775 4.22894 0
M  V30 8237 H 797.022 1.66635 3.81277 0
M  V30 8238 H 795.898 1.784 5.191 0
M  V30 8239 H 796.159 0.229908 4.41502 0
M  V30 8240 N 795.218 -1.23913 0.973828 0
M  V30 8241 C 796.181 -2.23367 0.51378 0
M  V30 8242 C 797.181 -1.55923 -0.39302 0
M  V30 8243 O 798.371 -1.73187 -0.187626 0
M  V30 8244 C 795.503 -3.39944 -0.255152 0
M  V30 8245 H 796.696 -2.65581 1.39307 0
M  V30 8246 H 794.249 -1.36632 0.759039 0
M  V30 8247 H 794.984 -3.03177 -1.15127 0
M  V30 8248 H 794.769 -3.90098 0.395673 0
M  V30 8249 H 796.259 -4.13749 -0.565842 0
M  V30 8250 N 796.696 -0.74468 -1.38897 0
M  V30 8251 C 797.945 -0.293716 -1.9955 0
M  V30 8252 C 798.258 1.12831 -1.59777 0
M  V30 8253 O 799.464 1.67929 -2.13336 0
M  V30 8254 C 797.92 -0.474188 -3.56762 0
M  V30 8255 C 797.528 -1.90472 -4.05493 0
M  V30 8256 C 799.272 -0.0854875 -4.24414 0
M  V30 8257 C 797.179 -2.03423 -5.55314 0
M  V30 8258 H 796.109 -0.106066 -0.746502 0
M  V30 8259 H 798.76 -0.919948 -1.58774 0
M  V30 8260 H 797.142 0.221092 -3.95382 0
M  V30 8261 H 798.316 -2.63274 -3.78184 0
M  V30 8262 H 796.631 -2.24752 -3.50536 0
M  V30 8263 H 799.228 -0.161133 -5.34457 0
M  V30 8264 H 799.571 0.96066 -4.05064 0
M  V30 8265 H 800.104 -0.732286 -3.91002 0
M  V30 8266 H 796.843 -3.0626 -5.79556 0
M  V30 8267 H 796.363 -1.3507 -5.84394 0
M  V30 8268 H 798.042 -1.81996 -6.20876 0
M  V30 8269 N 798.174 1.49689 -0.493057 0
M  V30 8270 C 799.42 2.02727 0.0543518 0
M  V30 8271 C 799.753 1.37264 1.37376 0
M  V30 8272 O 799.028 0.505644 1.87812 0
M  V30 8273 C 799.311 3.59456 0.215226 0
M  V30 8274 C 799.164 4.35459 -1.12675 0
M  V30 8275 C 800.483 4.29511 0.959586 0
M  V30 8276 H 797.602 0.736773 0.0182786 0
M  V30 8277 H 800.244 1.78792 -0.642924 0
M  V30 8278 H 798.394 3.79981 0.809122 0
M  V30 8279 H 800.066 4.2645 -1.75891 0
M  V30 8280 H 798.309 3.9833 -1.71801 0
M  V30 8281 H 798.98 5.43454 -0.967578 0
M  V30 8282 H 801.456 4.13594 0.455977 0
M  V30 8283 H 800.332 5.38939 1.04098 0
M  V30 8284 H 800.593 3.94202 2.00144 0
M  V30 8285 N 799.652 0.226554 1.55963 0
M  V30 8286 C 800.582 -0.676079 2.23498 0
M  V30 8287 C 801.563 -1.19718 1.20837 0
M  V30 8288 O 802.748 -1.24027 1.49436 0
M  V30 8289 C 799.878 -1.88217 2.91876 0
M  V30 8290 C 798.832 -1.4947 4.01052 0
M  V30 8291 C 798.158 -2.77997 4.56751 0
M  V30 8292 C 799.458 -0.680951 5.17842 0
M  V30 8293 H 801.152 -0.112989 2.99187 0
M  V30 8294 H 798.698 -0.0529046 1.43903 0
M  V30 8295 H 800.651 -2.51911 3.37815 0
M  V30 8296 H 799.375 -2.47031 2.13643 0
M  V30 8297 H 798.034 -0.881199 3.55852 0
M  V30 8298 H 797.682 -3.34966 3.75243 0
M  V30 8299 H 797.382 -2.52803 5.30438 0
M  V30 8300 H 798.906 -3.42625 5.05411 0
M  V30 8301 H 800.32 -1.22171 5.60131 0
M  V30 8302 H 798.717 -0.525898 5.97791 0
M  V30 8303 H 799.787 0.311346 4.83899 0
M  V30 8304 N 801.13 -1.57531 -0.0467866 0
M  V30 8305 C 802.358 -1.92696 -0.753371 0
M  V30 8306 C 802.773 -0.824792 -1.69831 0
M  V30 8307 O 802.13 0.200155 -1.81399 0
M  V30 8308 C 802.181 -3.27728 -1.52566 0
M  V30 8309 O 801.902 -4.3371 -0.618674 0
M  V30 8310 C 803.403 -3.77066 -2.33101 0
M  V30 8311 H 800.623 -0.636367 -0.212788 0
M  V30 8312 H 803.167 -2.04498 -0.00959361 0
M  V30 8313 H 801.322 -3.17378 -2.22148 0
M  V30 8314 H 801.736 -5.11548 -1.15839 0
M  V30 8315 H 803.21 -4.74109 -2.82709 0
M  V30 8316 H 803.687 -3.07348 -3.13741 0
M  V30 8317 H 804.293 -3.90442 -1.68628 0
M  V30 8318 N 802.608 0.318715 -1.54344 0
M  V30 8319 C 803.857 1.05363 -1.71993 0
M  V30 8320 C 804.17 1.89018 -0.503155 0
M  V30 8321 O 805.376 2.65639 -0.561085 0
M  V30 8322 C 803.832 1.92281 -3.0423 0
M  V30 8323 C 803.44 1.13715 -4.33328 0
M  V30 8324 C 805.184 2.65479 -3.31242 0
M  V30 8325 C 803.091 1.99806 -5.56625 0
M  V30 8326 H 802.021 0.397081 -0.64097 0
M  V30 8327 H 804.672 0.311598 -1.80835 0
M  V30 8328 H 803.054 2.70402 -2.89307 0
M  V30 8329 H 804.228 0.403305 -4.59032 0
M  V30 8330 H 802.543 0.521769 -4.13118 0
M  V30 8331 H 805.14 3.30209 -4.20555 0
M  V30 8332 H 805.483 3.33374 -2.49334 0
M  V30 8333 H 806.016 1.94417 -3.47054 0
M  V30 8334 H 802.755 1.36411 -6.41149 0
M  V30 8335 H 802.275 2.70911 -5.35133 0
M  V30 8336 H 803.954 2.58277 -5.93213 0
M  V30 8337 N 804.086 1.46499 0.581025 0
M  V30 8338 C 805.332 1.53108 1.33901 0
M  V30 8339 C 805.687 0.181007 1.91547 0
M  V30 8340 O 804.98 -0.810518 1.73612 0
M  V30 8341 C 805.174 2.56686 2.48691 0
M  V30 8342 C 805.003 4.01633 2.0229 0
M  V30 8343 C 803.773 4.69333 1.87228 0
M  V30 8344 C 805.971 4.89379 1.58154 0
M  V30 8345 N 803.953 5.98891 1.34917 0
M  V30 8346 C 805.324 6.08775 1.17445 0
M  V30 8347 C 807.379 4.76017 1.45987 0
M  V30 8348 C 806.082 7.16286 0.657805 0
M  V30 8349 C 808.108 5.83601 0.95726 0
M  V30 8350 C 807.47 7.02171 0.55996 0
M  V30 8351 H 803.569 0.61509 0.482896 0
M  V30 8352 H 806.153 1.83123 0.661361 0
M  V30 8353 H 804.324 2.28578 3.14017 0
M  V30 8354 H 806.056 2.5328 3.15644 0
M  V30 8355 H 802.811 4.24878 2.09226 0
M  V30 8356 H 803.235 6.67852 1.10917 0
M  V30 8357 H 807.877 3.84736 1.75322 0
M  V30 8358 H 805.595 8.07333 0.352047 0
M  V30 8359 H 809.181 5.75304 0.867007 0
M  V30 8360 H 808.061 7.84 0.177046 0
M  V30 8361 N 805.565 -0.825799 1.34232 0
M  V30 8362 C 806.981 -1.11848 1.13851 0
M  V30 8363 C 807.181 -2.01405 -0.0619031 0
M  V30 8364 O 806.237 -2.41465 -0.738287 0
M  V30 8365 C 807.55 -1.76797 2.43235 0
M  V30 8366 C 809.098 -1.89304 2.49265 0
M  V30 8367 C 809.573 -2.57669 3.78643 0
M  V30 8368 N 811.064 -2.65171 3.79788 0
M  V30 8369 C 811.799 -3.1879 4.76614 0
M  V30 8370 N 811.295 -3.72995 5.83821 0
M  V30 8371 N 813.088 -3.17164 4.64073 0
M  V30 8372 H 805.239 -0.230049 2.11151 0
M  V30 8373 H 807.502 -0.164609 0.9336 0
M  V30 8374 H 807.208 -1.18455 3.31152 0
M  V30 8375 H 807.082 -2.76693 2.56361 0
M  V30 8376 H 809.469 -2.46796 1.6179 0
M  V30 8377 H 809.55 -0.883191 2.4007 0
M  V30 8378 H 809.194 -2.00833 4.66507 0
M  V30 8379 H 809.124 -3.59152 3.8512 0
M  V30 8380 H 811.615 -2.26746 3.02315 0
M  V30 8381 H 811.928 -4.12151 6.53721 0
M  V30 8382 H 810.273 -3.71246 5.87538 0
M  V30 8383 H 813.464 -2.74082 3.79469 0
M  V30 8384 H 813.637 -3.58647 5.397 0
M  V30 8385 N 807.043 -1.17915 -1.04565 0
M  V30 8386 C 807.975 -0.859359 -2.1248 0
M  V30 8387 C 808.988 0.140922 -1.62189 0
M  V30 8388 O 810.177 -0.0862361 -1.78292 0
M  V30 8389 C 807.277 -0.261811 -3.37887 0
M  V30 8390 C 806.45 -1.30651 -4.17431 0
M  V30 8391 C 805.509 -0.725575 -5.21174 0
M  V30 8392 O 804.535 -1.39901 -5.51739 0
M  V30 8393 N 805.737 0.479351 -5.78517 0
M  V30 8394 H 808.502 -1.78818 -2.40508 0
M  V30 8395 H 806.063 -1.07885 -1.20716 0
M  V30 8396 H 808.055 0.14028 -4.04457 0
M  V30 8397 H 806.625 0.570929 -3.07342 0
M  V30 8398 H 805.845 -1.88412 -3.46258 0
M  V30 8399 H 807.133 -2.01099 -4.67372 0
M  V30 8400 H 806.531 1.04431 -5.55977 0
M  V30 8401 H 805.088 0.823427 -6.46578 0
M  V30 8402 N 808.521 1.23394 -0.980386 0
M  V30 8403 C 809.932 1.73631 -0.686239 0
M  V30 8404 C 810.283 1.79259 0.797541 0
M  V30 8405 O 809.408 1.43046 1.62379 0
M  V30 8406 C 810.003 3.15332 -1.239 0
M  V30 8407 C 808.562 3.63024 -0.994494 0
M  V30 8408 C 807.709 2.41279 -1.36673 0
M  V30 8409 H 810.66 1.08918 -1.15423 0
M  V30 8410 H 810.681 3.75556 -0.611414 0
M  V30 8411 H 810.193 3.11204 -2.31892 0
M  V30 8412 H 808.294 3.72535 0.0693492 0
M  V30 8413 H 808.407 4.49825 -1.64906 0
M  V30 8414 H 806.771 2.42295 -0.785195 0
M  V30 8415 H 807.554 2.39822 -2.45642 0
M  V30 8416 N 809.999 0.752036 1.385 0
M  V30 8417 C 810.931 0.0835089 2.29048 0
M  V30 8418 C 811.944 -0.685402 1.47669 0
M  V30 8419 O 813.133 -0.526748 1.70551 0
M  V30 8420 C 810.233 -0.905772 3.26572 0
M  V30 8421 C 809.406 -0.194828 4.36966 0
M  V30 8422 C 808.465 -1.09464 5.14688 0
M  V30 8423 O 807.491 -0.565743 5.66381 0
M  V30 8424 N 808.693 -2.42287 5.2752 0
M  V30 8425 H 811.458 0.861142 2.87062 0
M  V30 8426 H 809.019 0.602689 1.50264 0
M  V30 8427 H 811.011 -1.51072 3.75446 0
M  V30 8428 H 809.581 -1.58449 2.69467 0
M  V30 8429 H 808.801 0.590812 3.89747 0
M  V30 8430 H 810.089 0.297189 5.07931 0
M  V30 8431 H 809.487 -2.87715 4.8707 0
M  V30 8432 H 808.044 -2.97836 5.79773 0
M  V30 8433 N 811.477 -1.49425 0.500989 0
M  V30 8434 C 812.425 -2.30771 -0.291149 0
M  V30 8435 C 813.419 -1.3938 -0.962787 0
M  V30 8436 O 814.625 -1.56431 -0.890477 0
M  V30 8437 H 811 -0.743499 -0.11275 0
M  V30 8438 H 812.971 -2.95501 0.414917 0
M  V30 8439 C 811.72 -3.20725 -1.34279 0
M  V30 8440 H 811.043 -3.90975 -0.83538 0
M  V30 8441 H 812.483 -3.80583 -1.86903 0
M  V30 8442 C 810.942 -2.40334 -2.36095 0
M  V30 8443 O 811.472 -2.10749 -3.41976 0
M  V30 8444 N 809.678 -2.02359 -2.08565 0
M  V30 8445 H 809.225 -2.26619 -1.22482 0
M  V30 8446 H 809.183 -1.48878 -2.76916 0
M  V30 8447 N 812.955 -0.234822 -1.55841 0
M  V30 8448 C 813.887 0.702346 -2.18174 0
M  V30 8449 C 814.9 1.14776 -1.15457 0
M  V30 8450 O 816.089 1.07662 -1.42377 0
M  V30 8451 C 813.189 1.96483 -2.76129 0
M  V30 8452 C 812.362 1.67283 -4.04148 0
M  V30 8453 C 811.421 2.7837 -4.46539 0
M  V30 8454 O 810.447 2.46272 -5.13166 0
M  V30 8455 N 811.649 4.07611 -4.1332 0
M  V30 8456 H 814.414 0.169074 -2.99223 0
M  V30 8457 H 811.975 -0.0543164 -1.61809 0
M  V30 8458 H 813.967 2.70016 -3.01452 0
M  V30 8459 H 812.537 2.40822 -1.99307 0
M  V30 8460 H 811.757 0.773278 -3.86541 0
M  V30 8461 H 813.045 1.45222 -4.87635 0
M  V30 8462 H 812.443 4.36527 -3.59806 0
M  V30 8463 H 811 4.77646 -4.43506 0
M  V30 8464 N 814.433 1.57553 0.0384317 0
M  V30 8465 C 815.365 2.02726 1.06934 0
M  V30 8466 C 816.378 0.938502 1.33026 0
M  V30 8467 O 817.567 1.21595 1.30678 0
M  V30 8468 C 814.667 2.37958 2.41308 0
M  V30 8469 C 813.84 3.69098 2.34703 0
M  V30 8470 C 812.899 3.91623 3.51451 0
M  V30 8471 O 811.925 4.628 3.31368 0
M  V30 8472 N 813.127 3.36538 4.72993 0
M  V30 8473 H 815.892 2.91781 0.684381 0
M  V30 8474 H 813.453 1.60307 0.226542 0
M  V30 8475 H 815.445 2.50172 3.18113 0
M  V30 8476 H 814.015 1.54621 2.71682 0
M  V30 8477 H 813.235 3.67325 1.43059 0
M  V30 8478 H 814.523 4.55144 2.27424 0
M  V30 8479 H 813.921 2.78828 4.92211 0
M  V30 8480 H 812.478 3.54148 5.47195 0
M  V30 8481 N 815.911 -0.310526 1.54511 0
M  V30 8482 C 816.858 -1.38264 1.84802 0
M  V30 8483 C 817.828 -1.50808 0.696141 0
M  V30 8484 O 819.013 -1.6582 0.943846 0
M  V30 8485 C 816.153 -2.74422 2.09252 0
M  V30 8486 C 815.266 -2.70405 3.36906 0
M  V30 8487 C 814.401 -3.98495 3.51248 0
M  V30 8488 C 813.44 -3.88836 4.72729 0
M  V30 8489 N 812.577 -5.08683 4.83928 0
M  V30 8490 H 817.417 -1.11732 2.76261 0
M  V30 8491 H 814.954 -0.540609 1.36806 0
M  V30 8492 H 816.912 -3.53593 2.21422 0
M  V30 8493 H 815.542 -2.99235 1.2107 0
M  V30 8494 H 814.594 -1.83151 3.33406 0
M  V30 8495 H 815.906 -2.59155 4.26193 0
M  V30 8496 H 815.06 -4.861 3.63031 0
M  V30 8497 H 813.799 -4.12567 2.60077 0
M  V30 8498 H 812.804 -2.99615 4.60989 0
M  V30 8499 H 814.029 -3.76318 5.65298 0
M  V30 8500 H 811.975 -5.23236 3.95677 0
M  V30 8501 H 811.892 -4.99819 5.67201 0
M  V30 8502 H 813.16 -5.97966 5.00057 0
M  V30 8503 N 817.389 -1.46805 -0.573248 0
M  V30 8504 C 818.635 -1.5283 -1.33307 0
M  V30 8505 C 818.968 -0.183287 -1.93333 0
M  V30 8506 O 818.243 0.806354 -1.76998 0
M  V30 8507 C 818.526 -2.63414 -2.45531 0
M  V30 8508 C 818.379 -4.07478 -1.90478 0
M  V30 8509 C 819.698 -2.70014 -3.47535 0
M  V30 8510 H 816.817 -0.556371 -0.483343 0
M  V30 8511 H 819.459 -1.78787 -0.643066 0
M  V30 8512 H 817.609 -2.41412 -3.04389 0
M  V30 8513 H 819.281 -4.40795 -1.36004 0
M  V30 8514 H 817.524 -4.16511 -1.21248 0
M  V30 8515 H 818.195 -4.80598 -2.71531 0
M  V30 8516 H 820.671 -2.89817 -2.98572 0
M  V30 8517 H 819.547 -3.49192 -4.23504 0
M  V30 8518 H 819.808 -1.76436 -4.05367 0
M  V30 8519 N 818.867 0.818669 -1.34668 0
M  V30 8520 C 819.83 1.9114 -1.26483 0
M  V30 8521 C 820.83 1.598 -0.179044 0
M  V30 8522 O 822.02 1.6876 -0.431952 0
M  V30 8523 C 819.152 3.27285 -0.95381 0
M  V30 8524 H 820.345 1.9982 -2.23634 0
M  V30 8525 H 817.898 1.01314 -1.19018 0
M  V30 8526 H 818.633 3.24297 0.0143428 0
M  V30 8527 H 818.418 3.51416 -1.73924 0
M  V30 8528 H 819.908 4.07299 -0.921827 0
M  V30 8529 N 820.346 1.18468 1.03938 0
M  V30 8530 C 821.593 0.980833 1.77161 0
M  V30 8531 C 821.921 -0.489425 1.88242 0
M  V30 8532 O 821.176 -1.37961 1.388 0
M  V30 8533 C 821.475 1.58229 3.20466 0
M  V30 8534 C 821.141 3.07889 3.29416 0
M  V30 8535 C 819.803 3.48737 3.31566 0
M  V30 8536 C 822.155 4.03903 3.29411 0
M  V30 8537 C 819.483 4.84171 3.31355 0
M  V30 8538 C 821.835 5.39253 3.3074 0
M  V30 8539 C 820.499 5.79547 3.31182 0
M  V30 8540 H 819.769 0.358912 0.648277 0
M  V30 8541 H 822.416 1.47552 1.22069 0
M  V30 8542 H 820.721 1.00964 3.78568 0
M  V30 8543 H 822.418 1.39998 3.75768 0
M  V30 8544 H 819.008 2.75335 3.28464 0
M  V30 8545 H 823.192 3.73395 3.2694 0
M  V30 8546 H 818.448 5.14685 3.30015 0
M  V30 8547 H 822.622 6.13417 3.29686 0
M  V30 8548 H 820.249 6.84466 3.30772 0
M  V30 8549 N 821.824 -1.22873 0.986916 0
M  V30 8550 C 822.757 -2.23154 0.477245 0
M  V30 8551 C 823.735 -1.55981 -0.459206 0
M  V30 8552 O 824.919 -1.84503 -0.386141 0
M  V30 8553 C 822.046 -3.37289 -0.308838 0
M  V30 8554 C 821.092 -4.22637 0.572717 0
M  V30 8555 S 821.925 -4.95758 2.02446 0
M  V30 8556 C 823.081 -6.13338 1.2477 0
M  V30 8557 H 823.314 -2.6604 1.32702 0
M  V30 8558 H 820.847 -1.32455 0.793415 0
M  V30 8559 H 822.805 -4.03472 -0.756351 0
M  V30 8560 H 821.466 -2.92922 -1.13381 0
M  V30 8561 H 820.659 -5.0399 -0.0318024 0
M  V30 8562 H 820.261 -3.61555 0.956746 0
M  V30 8563 H 822.553 -6.7556 0.51231 0
M  V30 8564 H 823.496 -6.78189 2.03629 0
M  V30 8565 H 823.904 -5.59311 0.763622 0
M  V30 8566 N 823.302 -0.75937 -1.38099 0
M  V30 8567 C 824.548 -0.318584 -2.00282 0
M  V30 8568 C 824.881 1.09854 -1.60143 0
M  V30 8569 O 824.156 1.75344 -0.841702 0
M  V30 8570 C 824.439 -0.448047 -3.57302 0
M  V30 8571 C 824.292 -1.9067 -4.07388 0
M  V30 8572 C 825.611 0.155119 -4.39827 0
M  V30 8573 H 822.73 -0.117233 -0.727616 0
M  V30 8574 H 825.372 -0.960097 -1.63958 0
M  V30 8575 H 823.522 0.0981003 -3.88376 0
M  V30 8576 H 825.194 -2.5116 -3.86932 0
M  V30 8577 H 823.437 -2.41979 -3.6004 0
M  V30 8578 H 824.108 -1.94841 -5.1647 0
M  V30 8579 H 826.584 -0.31073 -4.14938 0
M  V30 8580 H 825.46 0.0343264 -5.48889 0
M  V30 8581 H 825.721 1.24407 -4.24235 0
M  V30 8582 N 824.78 1.49157 -0.508906 0
M  V30 8583 C 826.191 1.86593 -0.0630975 0
M  V30 8584 C 826.542 1.42051 1.35337 0
M  V30 8585 O 825.667 0.801866 2.00995 0
M  V30 8586 C 826.262 3.38629 -0.107729 0
M  V30 8587 C 824.821 3.75336 0.282776 0
M  V30 8588 C 823.968 2.7317 -0.4768 0
M  V30 8589 H 826.919 1.41362 -0.72128 0
M  V30 8590 H 826.94 3.74271 0.685689 0
M  V30 8591 H 826.452 3.71017 -1.13876 0
M  V30 8592 H 824.553 3.48558 1.31675 0
M  V30 8593 H 824.666 4.79081 -0.0421728 0
M  V30 8594 H 823.03 2.54591 0.0743552 0
M  V30 8595 H 823.813 3.08403 -1.50807 0
M  V30 8596 N 826.258 0.243083 1.55714 0
M  V30 8597 C 827.505 -0.38272 1.9885 0
M  V30 8598 C 827.833 -1.58225 1.13115 0
M  V30 8599 O 827.088 -1.94861 0.181067 0
M  V30 8600 C 827.387 -0.839621 3.47398 0
M  V30 8601 C 827.053 0.251737 4.50197 0
M  V30 8602 C 825.715 0.551487 4.78029 0
M  V30 8603 C 828.067 0.988728 5.11736 0
M  V30 8604 C 825.395 1.59237 5.64677 0
M  V30 8605 C 827.747 2.0191 5.99512 0
M  V30 8606 C 826.411 2.32554 6.2568 0
M  V30 8607 H 825.681 -0.140047 0.727645 0
M  V30 8608 H 828.328 0.35011 1.88272 0
M  V30 8609 H 826.633 -1.65159 3.55288 0
M  V30 8610 H 828.33 -1.33404 3.78159 0
M  V30 8611 H 824.92 0.00796741 4.28599 0
M  V30 8612 H 829.104 0.7704 4.90284 0
M  V30 8613 H 824.36 1.83517 5.83208 0
M  V30 8614 H 828.534 2.59511 6.46241 0
M  V30 8615 H 826.161 3.13349 6.92616 0
M  V30 8616 N 827.736 -1.57571 -0.0300757 0
M  V30 8617 C 828.666 -2.0953 -1.03051 0
M  V30 8618 C 829.647 -0.99761 -1.37774 0
M  V30 8619 O 830.832 -1.27279 -1.46676 0
M  V30 8620 C 827.962 -2.57385 -2.33174 0
M  V30 8621 C 826.916 -3.71409 -2.12696 0
M  V30 8622 C 826.242 -4.05467 -3.4857 0
M  V30 8623 C 827.542 -4.99877 -1.51396 0
M  V30 8624 H 829.236 -2.93367 -0.597999 0
M  V30 8625 H 826.782 -1.41127 -0.286203 0
M  V30 8626 H 828.735 -2.92355 -3.03491 0
M  V30 8627 H 827.459 -1.70629 -2.78484 0
M  V30 8628 H 826.118 -3.36786 -1.44813 0
M  V30 8629 H 825.766 -3.15779 -3.91526 0
M  V30 8630 H 825.466 -4.82269 -3.35694 0
M  V30 8631 H 826.99 -4.4297 -4.2025 0
M  V30 8632 H 828.404 -5.3281 -2.11629 0
M  V30 8633 H 826.801 -5.81283 -1.49098 0
M  V30 8634 H 827.871 -4.82522 -0.479676 0
M  V30 8635 N 829.214 0.302327 -1.54673 0
M  V30 8636 C 830.625 0.875409 -1.64904 0
M  V30 8637 C 830.976 1.88132 -0.55684 0
M  V30 8638 O 830.101 2.14215 0.306754 0
M  V30 8639 C 830.696 1.59457 -2.9893 0
M  V30 8640 C 829.255 2.11607 -3.11287 0
M  V30 8641 C 828.402 0.948324 -2.6058 0
M  V30 8642 H 831.353 0.079362 -1.58501 0
M  V30 8643 H 831.374 2.46005 -2.90279 0
M  V30 8644 H 830.886 0.8622 -3.78402 0
M  V30 8645 H 828.987 2.87895 -2.36532 0
M  V30 8646 H 829.1 2.35151 -4.17422 0
M  V30 8647 H 827.464 1.33352 -2.17001 0
M  V30 8648 H 828.247 0.229936 -3.42529 0
M  V30 8649 N 830.692 1.47107 0.565454 0
M  V30 8650 C 831.939 1.53308 1.32299 0
M  V30 8651 C 832.267 0.1919 1.93551 0
M  V30 8652 O 831.522 -0.81435 1.77952 0
M  V30 8653 C 831.821 2.59309 2.45954 0
M  V30 8654 C 831.487 4.02827 2.02586 0
M  V30 8655 C 830.149 4.41897 1.90474 0
M  V30 8656 C 832.501 4.92913 1.6937 0
M  V30 8657 C 829.829 5.68898 1.4343 0
M  V30 8658 C 832.181 6.20368 1.238 0
M  V30 8659 C 830.845 6.58327 1.10278 0
M  V30 8660 H 830.115 0.560993 0.484116 0
M  V30 8661 H 832.762 1.80667 0.634965 0
M  V30 8662 H 831.067 2.25676 3.20277 0
M  V30 8663 H 832.764 2.61332 3.04149 0
M  V30 8664 H 829.354 3.71953 2.12952 0
M  V30 8665 H 833.538 4.63433 1.77605 0
M  V30 8666 H 828.794 5.97065 1.31618 0
M  V30 8667 H 832.968 6.89589 0.971586 0
M  V30 8668 H 830.595 7.56628 0.736027 0
M  V30 8669 N 832.17 -0.811516 1.35101 0
M  V30 8670 C 833.1 -1.9378 1.30275 0
M  V30 8671 C 834.081 -1.69165 0.178075 0
M  V30 8672 O 835.266 -1.90599 0.372256 0
M  V30 8673 C 832.396 -3.30439 1.06899 0
M  V30 8674 C 831.35 -3.69523 2.15955 0
M  V30 8675 C 830.676 -5.0429 1.77751 0
M  V30 8676 C 831.976 -3.80419 3.57881 0
M  V30 8677 H 833.67 -1.98075 2.24514 0
M  V30 8678 H 831.216 -0.951586 1.08078 0
M  V30 8679 H 833.169 -4.08828 1.02164 0
M  V30 8680 H 831.893 -3.26473 0.0910462 0
M  V30 8681 H 830.552 -2.93416 2.19778 0
M  V30 8682 H 830.2 -4.96823 0.785876 0
M  V30 8683 H 829.9 -5.31411 2.5075 0
M  V30 8684 H 831.424 -5.85125 1.74533 0
M  V30 8685 H 832.838 -4.49051 3.56407 0
M  V30 8686 H 831.235 -4.19005 4.29598 0
M  V30 8687 H 832.305 -2.82105 3.94391 0
M  V30 8688 N 833.648 -1.19017 -1.03309 0
M  V30 8689 C 835.059 -0.993206 -1.5809 0
M  V30 8690 C 835.41 0.45505 -1.9085 0
M  V30 8691 O 834.535 1.33372 -1.70414 0
M  V30 8692 C 835.13 -1.79661 -2.87241 0
M  V30 8693 C 833.689 -1.64377 -3.38611 0
M  V30 8694 C 832.836 -1.78628 -2.12102 0
M  V30 8695 H 835.787 -1.3345 -0.858879 0
M  V30 8696 H 835.808 -1.29019 -3.57958 0
M  V30 8697 H 835.32 -2.85061 -2.63366 0
M  V30 8698 H 833.421 -0.615447 -3.67482 0
M  V30 8699 H 833.534 -2.44651 -4.11926 0
M  V30 8700 H 831.898 -1.21648 -2.23772 0
M  V30 8701 H 832.681 -2.8548 -1.90673 0
M  V30 8702 N 835.127 1.22348 -0.993418 0
M  V30 8703 C 836.09 2.22522 -0.549251 0
M  V30 8704 C 837.09 1.56529 0.368164 0
M  V30 8705 O 838.28 1.73463 0.16005 0
M  V30 8706 C 835.412 3.40307 0.201037 0
M  V30 8707 H 836.605 2.63332 -1.43515 0
M  V30 8708 H 834.158 1.35407 -0.78068 0
M  V30 8709 H 834.893 3.0497 1.10289 0
M  V30 8710 H 834.678 3.8942 -0.457685 0
M  V30 8711 H 836.168 4.14597 0.499946 0
M  V30 8712 N 836.605 0.766683 1.37694 0
M  V30 8713 C 837.852 0.328714 1.99814 0
M  V30 8714 C 838.18 -1.09333 1.60862 0
M  V30 8715 O 837.435 -1.7657 0.8439 0
M  V30 8716 C 837.734 0.413831 3.54996 0
M  V30 8717 C 837.4 1.7934 4.137 0
M  V30 8718 C 836.062 2.17092 4.29447 0
M  V30 8719 C 838.414 2.69776 4.45949 0
M  V30 8720 C 835.742 3.44726 4.74743 0
M  V30 8721 C 838.094 3.96814 4.92667 0
M  V30 8722 C 836.758 4.34618 5.0662 0
M  V30 8723 H 836.028 0.120285 0.731172 0
M  V30 8724 H 838.675 0.97972 1.64541 0
M  V30 8725 H 836.98 -0.320723 3.90485 0
M  V30 8726 H 838.677 0.0563369 4.0096 0
M  V30 8727 H 835.267 1.48997 4.01868 0
M  V30 8728 H 839.451 2.41871 4.33373 0
M  V30 8729 H 834.707 3.73917 4.83731 0
M  V30 8730 H 838.881 4.67022 5.16588 0
M  V30 8731 H 836.508 5.33578 5.41478 0
M  V30 8732 N 838.083 -1.48885 0.516809 0
M  V30 8733 C 839.308 -2.0739 -0.0205201 0
M  V30 8734 C 839.733 -1.37259 -1.28614 0
M  V30 8735 O 839.091 -0.434304 -1.76021 0
M  V30 8736 C 839.139 -3.59793 -0.24104 0
M  V30 8737 O 838.243 -3.90957 -1.31251 0
M  V30 8738 H 837.584 -0.663167 0.0332564 0
M  V30 8739 H 840.114 -1.91477 0.720956 0
M  V30 8740 H 840.124 -4.0531 -0.467737 0
M  V30 8741 H 838.799 -4.10244 0.68356 0
M  V30 8742 H 837.376 -3.57234 -1.06951 0
M  V30 8743 N 839.561 -0.251338 -1.55583 0
M  V30 8744 C 840.81 0.372681 -1.98227 0
M  V30 8745 C 841.123 1.58743 -1.1428 0
M  V30 8746 O 842.329 2.28289 -1.46957 0
M  V30 8747 C 840.785 0.714439 -3.52738 0
M  V30 8748 C 840.393 -0.479168 -4.4543 0
M  V30 8749 C 842.137 1.3024 -4.04027 0
M  V30 8750 C 840.044 -0.113318 -5.91291 0
M  V30 8751 H 838.974 0.14302 -0.740312 0
M  V30 8752 H 841.625 -0.352253 -1.80087 0
M  V30 8753 H 840.007 1.49762 -3.66589 0
M  V30 8754 H 841.181 -1.25644 -4.4334 0
M  V30 8755 H 839.496 -0.982359 -4.04646 0
M  V30 8756 H 842.093 1.58953 -5.10527 0
M  V30 8757 H 842.436 2.22837 -3.51638 0
M  V30 8758 H 842.969 0.582024 -3.93519 0
M  V30 8759 H 839.708 -1.00654 -6.47726 0
M  V30 8760 H 839.228 0.627666 -5.96507 0
M  V30 8761 H 840.907 0.30293 -6.4629 0
M  V30 8762 N 841.039 1.57585 0.0217189 0
M  V30 8763 C 841.969 2.10073 1.01939 0
M  V30 8764 C 842.95 1.0049 1.37243 0
M  V30 8765 O 844.135 1.28055 1.45999 0
M  V30 8766 C 841.265 2.58618 2.31806 0
M  V30 8767 C 840.219 3.72531 2.10724 0
M  V30 8768 C 839.545 4.07309 3.46415 0
M  V30 8769 C 840.845 5.00672 1.48743 0
M  V30 8770 H 842.539 2.9368 0.582432 0
M  V30 8771 H 840.085 1.41277 0.278715 0
M  V30 8772 H 842.038 2.9396 3.01936 0
M  V30 8773 H 840.762 1.72104 2.77575 0
M  V30 8774 H 839.421 3.37549 1.43025 0
M  V30 8775 H 839.069 3.17851 3.89846 0
M  V30 8776 H 838.769 4.84042 3.33132 0
M  V30 8777 H 840.293 4.45192 4.17895 0
M  V30 8778 H 841.707 5.33925 2.088 0
M  V30 8779 H 840.104 5.82065 1.46013 0
M  V30 8780 H 841.174 4.82769 0.45408 0
M  V30 8781 N 842.517 -0.29412 1.54831 0
M  V30 8782 C 843.763 -1.02999 1.74697 0
M  V30 8783 C 844.096 -1.86687 0.534949 0
M  V30 8784 O 843.371 -1.88789 -0.467863 0
M  V30 8785 C 843.654 -1.93024 3.03996 0
M  V30 8786 C 843.507 -1.1247 4.35512 0
M  V30 8787 C 844.826 -2.92085 3.29203 0
M  V30 8788 H 841.945 -0.373039 0.635618 0
M  V30 8789 H 844.587 -0.304065 1.87551 0
M  V30 8790 H 842.737 -2.5492 2.93169 0
M  V30 8791 H 844.409 -0.528067 4.58268 0
M  V30 8792 H 842.652 -0.427574 4.31688 0
M  V30 8793 H 843.323 -1.78728 5.22265 0
M  V30 8794 H 845.799 -2.40319 3.39685 0
M  V30 8795 H 844.675 -3.52234 4.20978 0
M  V30 8796 H 844.936 -3.66107 2.47827 0
M  V30 8797 N 843.995 -1.47404 -0.557645 0
M  V30 8798 C 844.943 -1.60265 -1.68576 0
M  V30 8799 C 845.937 -0.469982 -1.6275 0
M  V30 8800 O 847.143 -0.647764 -1.67941 0
M  V30 8801 H 843.518 -0.504353 -0.557792 0
M  V30 8802 H 845.489 -2.55066 -1.54867 0
M  V30 8803 C 844.238 -1.63369 -3.0693 0
M  V30 8804 H 843.561 -2.49874 -3.12095 0
M  V30 8805 H 845.001 -1.76417 -3.85556 0
M  V30 8806 C 843.46 -0.366921 -3.34896 0
M  V30 8807 O 843.99 0.53218 -3.98159 0
M  V30 8808 N 842.196 -0.247082 -2.89548 0
M  V30 8809 H 841.743 -0.979669 -2.38244 0
M  V30 8810 H 841.701 0.599552 -3.0863 0
M  V30 8811 N 845.473 0.80434 -1.35529 0
M  V30 8812 C 846.722 1.55665 -1.28263 0
M  V30 8813 C 847.035 1.95096 0.140352 0
M  V30 8814 O 848.241 2.69422 0.335303 0
M  V30 8815 C 846.697 2.80935 -2.24952 0
M  V30 8816 C 846.305 2.48733 -3.72607 0
M  V30 8817 C 848.049 3.5894 -2.26632 0
M  V30 8818 C 845.956 3.70308 -4.61114 0
M  V30 8819 H 844.886 0.584301 -0.476559 0
M  V30 8820 H 847.537 0.88395 -1.60806 0
M  V30 8821 H 845.919 3.49927 -1.85383 0
M  V30 8822 H 847.093 1.87733 -4.20824 0
M  V30 8823 H 845.408 1.83969 -3.73557 0
M  V30 8824 H 848.005 4.49244 -2.89973 0
M  V30 8825 H 848.348 3.96433 -1.27069 0
M  V30 8826 H 848.881 2.96912 -2.64742 0
M  V30 8827 H 845.62 3.37922 -5.61684 0
M  V30 8828 H 845.14 4.30526 -4.17621 0
M  V30 8829 H 846.819 4.37511 -4.76648 0
M  V30 8830 N 846.951 1.19563 1.02676 0
M  V30 8831 C 848.181 1.0234 1.79472 0
M  V30 8832 C 848.589 -0.430891 1.84228 0
M  V30 8833 O 847.932 -1.31106 1.28674 0
M  V30 8834 C 847.994 1.51901 3.25832 0
M  V30 8835 C 847.658 3.00045 3.44706 0
M  V30 8836 C 848.655 3.9779 3.34752 0
M  V30 8837 C 846.34 3.38784 3.70851 0
M  V30 8838 C 848.334 5.32267 3.50672 0
M  V30 8839 C 846.021 4.73419 3.86416 0
M  V30 8840 C 847.019 5.69969 3.7633 0
M  V30 8841 O 846.707 7.02165 3.91432 0
M  V30 8842 H 846.439 0.360936 0.571578 0
M  V30 8843 H 848.993 1.58863 1.30198 0
M  V30 8844 H 847.223 0.897546 3.7614 0
M  V30 8845 H 848.912 1.30853 3.84229 0
M  V30 8846 H 849.678 3.69207 3.14502 0
M  V30 8847 H 845.557 2.64183 3.77794 0
M  V30 8848 H 849.101 6.07612 3.42715 0
M  V30 8849 H 844.998 5.01697 4.06165 0
M  V30 8850 H 845.766 7.09268 4.08511 0
M  V30 8851 N 848.429 -1.21819 0.999893 0
M  V30 8852 C 849.359 -2.26282 0.576096 0
M  V30 8853 C 850.34 -1.65317 -0.400537 0
M  V30 8854 O 851.525 -1.92028 -0.28964 0
M  V30 8855 C 848.655 -3.47147 -0.103145 0
M  V30 8856 C 847.609 -4.20594 0.792745 0
M  V30 8857 C 846.935 -5.34696 -0.0198026 0
M  V30 8858 C 848.235 -4.78533 2.09293 0
M  V30 8859 H 849.929 -2.61984 1.4493 0
M  V30 8860 H 847.475 -1.25935 0.698316 0
M  V30 8861 H 849.428 -4.1939 -0.411068 0
M  V30 8862 H 848.152 -3.1056 -1.01094 0
M  V30 8863 H 846.811 -3.50194 1.08442 0
M  V30 8864 H 846.459 -4.94352 -0.928729 0
M  V30 8865 H 846.159 -5.84764 0.576661 0
M  V30 8866 H 847.683 -6.09752 -0.321659 0
M  V30 8867 H 849.097 -5.42682 1.8485 0
M  V30 8868 H 847.494 -5.38968 2.63881 0
M  V30 8869 H 848.564 -3.98197 2.76708 0
M  V30 8870 N 849.908 -0.773975 -1.37286 0
M  V30 8871 C 850.841 -0.108019 -2.27944 0
M  V30 8872 C 851.819 0.706737 -1.46438 0
M  V30 8873 O 853.003 0.681025 -1.75768 0
M  V30 8874 C 850.13 0.853199 -3.27778 0
M  V30 8875 C 849.176 0.122164 -4.26325 0
M  V30 8876 S 850.009 -1.19136 -5.22079 0
M  V30 8877 C 851.165 -0.233737 -6.25463 0
M  V30 8878 H 851.398 -0.876743 -2.84078 0
M  V30 8879 H 848.931 -0.567468 -1.43594 0
M  V30 8880 H 850.889 1.40238 -3.85803 0
M  V30 8881 H 849.55 1.59505 -2.70586 0
M  V30 8882 H 848.743 0.850926 -4.96765 0
M  V30 8883 H 848.345 -0.356079 -3.72301 0
M  V30 8884 H 850.637 0.59305 -6.74899 0
M  V30 8885 H 851.58 -0.906373 -7.02275 0
M  V30 8886 H 851.988 0.156048 -5.64284 0
M  V30 8887 N 851.386 1.48609 -0.524698 0
M  V30 8888 C 852.632 2.02797 0.0113382 0
M  V30 8889 C 852.965 1.40147 1.34433 0
M  V30 8890 O 852.24 0.545368 1.86698 0
M  V30 8891 C 852.523 3.59832 0.138931 0
M  V30 8892 C 852.376 4.32971 -1.21886 0
M  V30 8893 C 853.695 4.3145 0.868265 0
M  V30 8894 H 850.814 0.736995 0.00264645 0
M  V30 8895 H 853.456 1.77388 -0.680704 0
M  V30 8896 H 851.606 3.81612 0.72834 0
M  V30 8897 H 853.278 4.22624 -1.84897 0
M  V30 8898 H 851.521 3.94597 -1.80211 0
M  V30 8899 H 852.192 5.41279 -1.08263 0
M  V30 8900 H 854.668 4.14468 0.368145 0
M  V30 8901 H 853.544 5.41025 0.926428 0
M  V30 8902 H 853.805 3.98358 1.91737 0
M  V30 8903 N 852.864 0.259585 1.55447 0
M  V30 8904 C 853.796 -0.667548 2.19263 0
M  V30 8905 C 854.809 -1.12925 1.17268 0
M  V30 8906 O 855.998 -1.05384 1.44071 0
M  V30 8907 C 853.098 -1.92066 2.7922 0
M  V30 8908 C 852.271 -1.60832 4.06758 0
M  V30 8909 C 851.33 -2.71231 4.50911 0
M  V30 8910 O 850.356 -2.38077 5.17019 0
M  V30 8911 N 851.558 -4.00984 4.19752 0
M  V30 8912 H 854.323 -0.121449 2.99454 0
M  V30 8913 H 851.884 0.0800519 1.61702 0
M  V30 8914 H 853.876 -2.65186 3.0571 0
M  V30 8915 H 852.446 -2.37621 2.03113 0
M  V30 8916 H 851.666 -0.711685 3.87722 0
M  V30 8917 H 852.954 -1.37445 4.89884 0
M  V30 8918 H 852.352 -4.30748 3.66706 0
M  V30 8919 H 850.909 -4.7053 4.51048 0
M  V30 8920 N 854.342 -1.57594 -0.0133615 0
M  V30 8921 C 855.272 -2.10611 -1.00823 0
M  V30 8922 C 856.253 -1.01217 -1.36708 0
M  V30 8923 O 857.438 -1.28827 -1.45318 0
M  V30 8924 C 854.568 -2.59844 -2.30431 0
M  V30 8925 C 853.522 -3.73644 -2.08745 0
M  V30 8926 C 852.848 -4.09141 -3.4425 0
M  V30 8927 C 854.148 -5.01454 -1.46086 0
M  V30 8928 H 855.842 -2.93985 -0.566849 0
M  V30 8929 H 853.388 -1.41423 -0.271219 0
M  V30 8930 H 855.341 -2.95557 -3.00373 0
M  V30 8931 H 854.065 -1.73573 -2.76658 0
M  V30 8932 H 852.724 -3.38303 -1.41232 0
M  V30 8933 H 852.372 -3.19914 -3.88155 0
M  V30 8934 H 852.072 -4.85802 -3.3056 0
M  V30 8935 H 853.596 -4.47402 -4.15528 0
M  V30 8936 H 855.01 -5.35024 -2.05966 0
M  V30 8937 H 853.407 -5.82832 -1.42924 0
M  V30 8938 H 854.477 -4.83003 -0.428471 0
M  V30 8939 N 855.82 0.285905 -1.54985 0
M  V30 8940 C 857.045 1.04207 -1.7932 0
M  V30 8941 C 857.47 1.79622 -0.558343 0
M  V30 8942 O 856.828 1.74506 0.491661 0
M  V30 8943 C 856.876 1.98648 -3.0095 0
M  V30 8944 O 855.98 3.07207 -2.75132 0
M  V30 8945 H 855.321 0.298596 -0.593074 0
M  V30 8946 H 857.851 0.318736 -2.02102 0
M  V30 8947 H 857.861 2.4084 -3.29333 0
M  V30 8948 H 856.536 1.43167 -3.90482 0
M  V30 8949 H 855.113 2.69423 -2.57809 0
M  V30 8950 N 857.298 1.47698 0.54982 0
M  V30 8951 C 858.261 1.60282 1.63837 0
M  V30 8952 C 859.261 0.477394 1.5355 0
M  V30 8953 O 860.451 0.742665 1.57576 0
M  V30 8954 C 857.583 1.55431 3.03404 0
M  V30 8955 H 858.776 2.57325 1.54026 0
M  V30 8956 H 856.329 1.35999 0.770329 0
M  V30 8957 H 857.064 0.597912 3.1874 0
M  V30 8958 H 856.849 2.37116 3.12279 0
M  V30 8959 H 858.339 1.6739 3.82584 0
M  V30 8960 N 858.776 -0.797141 1.35954 0
M  V30 8961 C 860.053 -1.54224 1.2031 0
M  V30 8962 C 860.433 -2.10013 -0.213926 0
M  V30 8963 O 859.781 -1.93292 -1.21862 0
M  V30 8964 C 859.991 -2.6433 2.27883 0
M  V30 8965 C 861.339 -3.32418 2.64165 0
M  V30 8966 O 862.363 -2.74607 2.26868 0
M  V30 8967 O 861.222 -4.36876 3.28331 0
M  V30 8968 H 858.316 -0.681857 0.467974 0
M  V30 8969 H 860.862 -0.836288 1.47663 0
M  V30 8970 H 859.634 -2.21044 3.22885 0
M  V30 8971 H 859.257 -3.42551 2.01853 0
M  V30 8972 N 860.254 -1.20106 -1.0204 0
M  V30 8973 C 861.482 -1.0344 -1.79186 0
M  V30 8974 C 861.897 0.416542 -1.84148 0
M  V30 8975 O 861.254 1.28925 -1.29168 0
M  V30 8976 C 861.305 -1.60663 -3.23836 0
M  V30 8977 O 861.026 -3.00079 -3.19193 0
M  V30 8978 C 862.527 -1.48897 -4.17546 0
M  V30 8979 H 859.747 -0.364093 -0.563629 0
M  V30 8980 H 862.291 -1.5911 -1.28469 0
M  V30 8981 H 860.446 -1.09122 -3.71714 0
M  V30 8982 H 860.86 -3.27162 -4.09958 0
M  V30 8983 H 862.334 -1.93703 -5.16898 0
M  V30 8984 H 862.811 -0.440843 -4.36982 0
M  V30 8985 H 863.417 -1.9961 -3.75547 0
M  V30 8986 N 861.732 1.21287 -1.00634 0
M  V30 8987 C 862.978 1.90957 -0.70051 0
M  V30 8988 C 863.333 1.76729 0.760567 0
M  V30 8989 O 862.626 1.13405 1.54434 0
M  V30 8990 C 862.82 3.41374 -1.05824 0
M  V30 8991 C 862.649 3.70237 -2.55254 0
M  V30 8992 C 861.419 3.89518 -3.21876 0
M  V30 8993 C 863.617 3.73633 -3.53417 0
M  V30 8994 N 861.599 4.05809 -4.60643 0
M  V30 8995 C 862.97 3.95225 -4.777 0
M  V30 8996 C 865.025 3.56545 -3.47534 0
M  V30 8997 C 863.728 4.01502 -5.96815 0
M  V30 8998 C 865.754 3.64089 -4.6604 0
M  V30 8999 C 865.116 3.86144 -5.89128 0
M  V30 9000 H 861.215 0.718861 -0.307835 0
M  V30 9001 H 863.799 1.45913 -1.28908 0
M  V30 9002 H 861.97 3.85193 -0.498106 0
M  V30 9003 H 863.702 3.98476 -0.707006 0
M  V30 9004 H 860.457 3.87479 -2.72318 0
M  V30 9005 H 860.881 4.17854 -5.32661 0
M  V30 9006 H 865.523 3.38469 -2.53375 0
M  V30 9007 H 863.241 4.18378 -6.91365 0
M  V30 9008 H 866.827 3.52188 -4.63092 0
M  V30 9009 H 865.707 3.91827 -6.79295 0
M  V30 9010 N 863.21 0.781244 1.36873 0
M  V30 9011 C 864.456 0.350407 1.9975 0
M  V30 9012 C 864.789 -1.07293 1.6187 0
M  V30 9013 O 864.064 -1.73983 0.869491 0
M  V30 9014 C 864.347 0.504834 3.56544 0
M  V30 9015 C 864.2 1.97127 4.04303 0
M  V30 9016 C 865.519 -0.0851272 4.40018 0
M  V30 9017 H 862.638 0.128794 0.725659 0
M  V30 9018 H 865.28 0.98606 1.6241 0
M  V30 9019 H 863.43 -0.0363006 3.88483 0
M  V30 9020 H 865.102 2.57284 3.82887 0
M  V30 9021 H 863.345 2.47676 3.56145 0
M  V30 9022 H 864.016 2.03033 5.13305 0
M  V30 9023 H 866.492 0.376704 4.14391 0
M  V30 9024 H 865.368 0.0530015 5.48874 0
M  V30 9025 H 865.629 -1.17642 4.2616 0
M  V30 9026 N 864.689 -1.48329 0.532571 0
M  V30 9027 C 866.105 -1.58458 0.190605 0
M  V30 9028 C 866.305 -1.53427 -1.30623 0
M  V30 9029 O 865.361 -1.4247 -2.08467 0
M  V30 9030 C 866.674 -2.89989 0.79543 0
M  V30 9031 C 868.222 -3.03523 0.7644 0
M  V30 9032 C 868.697 -4.37718 1.34785 0
M  V30 9033 N 870.188 -4.44292 1.30993 0
M  V30 9034 C 870.923 -5.4664 1.73124 0
M  V30 9035 N 870.419 -6.5593 2.22997 0
M  V30 9036 N 872.212 -5.37538 1.64346 0
M  V30 9037 H 864.363 -1.49842 1.50537 0
M  V30 9038 H 866.626 -0.71164 0.626316 0
M  V30 9039 H 866.332 -2.99333 1.84642 0
M  V30 9040 H 866.206 -3.76203 0.27403 0
M  V30 9041 H 868.593 -2.93789 -0.277831 0
M  V30 9042 H 868.674 -2.18912 1.3233 0
M  V30 9043 H 868.318 -4.48206 2.38902 0
M  V30 9044 H 868.248 -5.21019 0.764609 0
M  V30 9045 H 870.739 -3.65897 0.944868 0
M  V30 9046 H 871.052 -7.30167 2.53133 0
M  V30 9047 H 869.397 -6.56886 2.26992 0
M  V30 9048 H 872.588 -4.51052 1.25178 0
M  V30 9049 H 872.761 -6.17169 1.97501 0
M  V30 9050 N 866.167 -0.267825 -1.55308 0
M  V30 9051 C 867.414 0.351036 -1.99434 0
M  V30 9052 C 867.742 1.56406 -1.15618 0
M  V30 9053 O 866.997 1.94548 -0.212045 0
M  V30 9054 C 867.296 0.784247 -3.48689 0
M  V30 9055 C 866.962 -0.323328 -4.49739 0
M  V30 9056 C 865.624 -0.627467 -4.77091 0
M  V30 9057 C 867.976 -1.07002 -5.10098 0
M  V30 9058 C 865.304 -1.682 -5.62073 0
M  V30 9059 C 867.656 -2.11422 -5.96224 0
M  V30 9060 C 866.32 -2.42479 -6.21901 0
M  V30 9061 H 865.59 0.128453 -0.729781 0
M  V30 9062 H 868.237 -0.380018 -1.87692 0
M  V30 9063 H 866.542 1.59485 -3.57871 0
M  V30 9064 H 868.239 1.2737 -3.80234 0
M  V30 9065 H 864.829 -0.0761528 -4.28532 0
M  V30 9066 H 869.013 -0.848302 -4.88996 0
M  V30 9067 H 864.269 -1.92772 -5.80215 0
M  V30 9068 H 868.443 -2.69759 -6.4203 0
M  V30 9069 H 866.07 -3.24328 -6.87543 0
M  V30 9070 N 867.645 1.57599 0.00500368 0
M  V30 9071 C 868.87 1.95026 0.705663 0
M  V30 9072 C 869.295 0.869643 1.6679 0
M  V30 9073 O 868.653 -0.172659 1.80476 0
M  V30 9074 C 868.701 3.31545 1.4181 0
M  V30 9075 O 867.805 3.25495 2.53232 0
M  V30 9076 H 867.146 0.636808 0.188074 0
M  V30 9077 H 869.676 2.04547 -0.046696 0
M  V30 9078 H 869.686 3.66996 1.78265 0
M  V30 9079 H 868.361 4.09751 0.712543 0
M  V30 9080 H 866.938 3.01714 2.19142 0
M  V30 9081 N 869.123 -0.277682 1.55134 0
M  V30 9082 C 870.372 -1.00766 1.74726 0
M  V30 9083 C 870.685 -1.87617 0.553092 0
M  V30 9084 O 871.891 -2.64058 0.631318 0
M  V30 9085 C 870.347 -1.84147 3.09221 0
M  V30 9086 C 869.955 -1.02186 4.3619 0
M  V30 9087 C 871.699 -2.56604 3.38164 0
M  V30 9088 C 869.606 -1.84978 5.61727 0
M  V30 9089 H 868.536 -0.379948 0.651273 0
M  V30 9090 H 871.187 -0.263543 1.81598 0
M  V30 9091 H 869.569 -2.62637 2.96375 0
M  V30 9092 H 870.743 -0.281459 4.5994 0
M  V30 9093 H 869.058 -0.412054 4.14356 0
M  V30 9094 H 871.655 -3.18942 4.29162 0
M  V30 9095 H 871.998 -3.26647 2.58085 0
M  V30 9096 H 872.531 -1.85147 3.52087 0
M  V30 9097 H 869.27 -1.19365 6.4454 0
M  V30 9098 H 868.79 -2.56628 5.42128 0
M  V30 9099 H 870.469 -2.42458 5.99853 0
M  V30 9100 N 870.601 -1.47988 -0.541979 0
M  V30 9101 C 871.847 -1.56604 -1.29795 0
M  V30 9102 C 872.202 -0.231728 -1.90999 0
M  V30 9103 O 871.495 0.764203 -1.757 0
M  V30 9104 C 871.689 -2.63189 -2.41798 0
M  V30 9105 C 871.518 -4.06855 -1.9157 0
M  V30 9106 C 870.288 -4.74132 -1.74719 0
M  V30 9107 C 872.486 -4.934 -1.45123 0
M  V30 9108 N 870.468 -6.02258 -1.18991 0
M  V30 9109 C 871.839 -6.11675 -1.01263 0
M  V30 9110 C 873.894 -4.7972 -1.33315 0
M  V30 9111 C 872.597 -7.17778 -0.467663 0
M  V30 9112 C 874.623 -5.85934 -0.802192 0
M  V30 9113 C 873.985 -7.03409 -0.373595 0
M  V30 9114 H 870.084 -0.627677 -0.466418 0
M  V30 9115 H 872.668 -1.84812 -0.612576 0
M  V30 9116 H 870.839 -2.36823 -3.07846 0
M  V30 9117 H 872.571 -2.6156 -3.08818 0
M  V30 9118 H 869.326 -4.30276 -1.97887 0
M  V30 9119 H 869.75 -6.70558 -0.931715 0
M  V30 9120 H 874.392 -3.89249 -1.6506 0
M  V30 9121 H 872.11 -8.07982 -0.137874 0
M  V30 9122 H 875.696 -5.774 -0.714171 0
M  V30 9123 H 874.576 -7.84194 0.0308796 0
M  V30 9124 N 872.079 0.78992 -1.36375 0
M  V30 9125 C 873.012 1.90907 -1.25019 0
M  V30 9126 C 873.99 1.62043 -0.134463 0
M  V30 9127 O 875.174 1.86008 -0.305506 0
M  V30 9128 C 872.301 3.25716 -0.928822 0
M  V30 9129 C 871.347 3.73511 -2.05892 0
M  V30 9130 S 872.18 3.89332 -3.6767 0
M  V30 9131 C 873.336 5.27017 -3.37645 0
M  V30 9132 H 873.569 2.00247 -2.19746 0
M  V30 9133 H 871.102 0.949097 -1.21785 0
M  V30 9134 H 873.06 4.03586 -0.750219 0
M  V30 9135 H 871.721 3.141 0.000658424 0
M  V30 9136 H 870.914 4.71195 -1.78862 0
M  V30 9137 H 870.516 3.02688 -2.19672 0
M  V30 9138 H 872.808 6.1158 -2.91507 0
M  V30 9139 H 873.751 5.5905 -4.3459 0
M  V30 9140 H 874.159 4.94093 -2.73006 0
M  V30 9141 N 873.557 1.20646 1.01402 0
M  V30 9142 C 874.52 0.959314 2.08158 0
M  V30 9143 C 875.52 -0.0661558 1.60664 0
M  V30 9144 O 876.71 0.170177 1.73367 0
M  V30 9145 C 873.842 0.444785 3.37986 0
M  V30 9146 H 875.035 1.90631 2.31517 0
M  V30 9147 H 872.588 1.02219 1.18241 0
M  V30 9148 H 873.323 -0.507553 3.20304 0
M  V30 9149 H 873.108 1.18435 3.73785 0
M  V30 9150 H 874.598 0.291443 4.16582 0
M  V30 9151 N 875.035 -1.20752 1.01276 0
M  V30 9152 C 876.284 -1.8934 0.695229 0
M  V30 9153 C 876.597 -1.79459 -0.77806 0
M  V30 9154 O 877.803 -2.43146 -1.20799 0
M  V30 9155 C 876.259 -3.39548 1.1931 0
M  V30 9156 C 875.867 -3.58023 2.69302 0
M  V30 9157 C 877.611 -4.13714 0.950823 0
M  V30 9158 C 875.518 -5.02037 3.1259 0
M  V30 9159 H 874.448 -0.709084 0.25635 0
M  V30 9160 H 877.099 -1.36629 1.22494 0
M  V30 9161 H 875.481 -3.91559 0.591395 0
M  V30 9162 H 876.655 -3.16416 3.34989 0
M  V30 9163 H 874.97 -2.97222 2.9163 0
M  V30 9164 H 877.567 -5.19891 1.24971 0
M  V30 9165 H 877.91 -4.16147 -0.112791 0
M  V30 9166 H 878.443 -3.67792 1.51571 0
M  V30 9167 H 875.182 -5.04757 4.18211 0
M  V30 9168 H 874.702 -5.44469 2.51621 0
M  V30 9169 H 876.381 -5.70594 3.0501 0
M  V30 9170 N 876.513 -0.788492 -1.36457 0
M  V30 9171 C 877.761 -0.359749 -1.98872 0
M  V30 9172 C 878.082 1.07197 -1.62892 0
M  V30 9173 O 877.352 1.73875 -0.902463 0
M  V30 9174 H 875.932 -0.130029 -0.735596 0
M  V30 9175 H 878.594 -1.01033 -1.66668 0
M  V30 9176 H 877.69 -0.450835 -3.08827 0
M  V30 9177 N 877.991 1.48044 -0.54043 0
M  V30 9178 C 879.238 2.02497 -0.0101567 0
M  V30 9179 C 879.566 1.41651 1.33286 0
M  V30 9180 O 878.821 0.555504 1.8765 0
M  V30 9181 C 879.12 3.57085 0.150008 0
M  V30 9182 C 878.786 4.36769 -1.11998 0
M  V30 9183 C 877.448 4.58261 -1.46801 0
M  V30 9184 C 879.8 4.82848 -1.96232 0
M  V30 9185 C 877.128 5.23079 -2.65717 0
M  V30 9186 C 879.48 5.48977 -3.14335 0
M  V30 9187 C 878.144 5.68705 -3.49472 0
M  V30 9188 H 877.414 0.740991 -0.00371661 0
M  V30 9189 H 880.061 1.77909 -0.708562 0
M  V30 9190 H 878.366 3.80572 0.931259 0
M  V30 9191 H 880.063 3.96851 0.575384 0
M  V30 9192 H 876.653 4.20309 -0.838957 0
M  V30 9193 H 880.837 4.66038 -1.70654 0
M  V30 9194 H 876.093 5.36549 -2.93129 0
M  V30 9195 H 880.267 5.83649 -3.79904 0
M  V30 9196 H 877.894 6.18703 -4.41713 0
M  V30 9197 N 879.47 0.276058 1.55163 0
M  V30 9198 C 880.4 -0.604633 2.25536 0
M  V30 9199 C 881.381 -1.15813 1.24585 0
M  V30 9200 O 882.566 -1.1921 1.53306 0
M  V30 9201 C 879.696 -1.78836 2.97716 0
M  V30 9202 C 878.65 -1.36635 4.05604 0
M  V30 9203 C 877.976 -2.63325 4.65364 0
M  V30 9204 C 879.276 -0.515858 5.19746 0
M  V30 9205 H 880.97 -0.0177483 2.99395 0
M  V30 9206 H 878.516 -0.00709627 1.43998 0
M  V30 9207 H 880.469 -2.41036 3.45658 0
M  V30 9208 H 879.193 -2.40109 2.21394 0
M  V30 9209 H 877.852 -0.767541 3.58475 0
M  V30 9210 H 877.5 -3.22858 3.85709 0
M  V30 9211 H 877.2 -2.358 5.38212 0
M  V30 9212 H 878.724 -3.26372 5.16056 0
M  V30 9213 H 880.138 -1.04289 5.63735 0
M  V30 9214 H 878.535 -0.335449 5.99162 0
M  V30 9215 H 879.605 0.465137 4.82664 0
M  V30 9216 N 880.948 -1.576 0.00335426 0
M  V30 9217 C 882.197 -1.89892 -0.680001 0
M  V30 9218 C 882.51 -0.878731 -1.7475 0
M  V30 9219 O 883.716 -1.09199 -2.48572 0
M  V30 9220 C 882.172 -3.37098 -1.26066 0
M  V30 9221 C 881.78 -4.4742 -0.227807 0
M  V30 9222 C 883.524 -3.78495 -1.92202 0
M  V30 9223 C 881.431 -5.85706 -0.81865 0
M  V30 9224 H 880.361 -0.708578 -0.257746 0
M  V30 9225 H 883.012 -1.83387 0.0644472 0
M  V30 9226 H 881.394 -3.38451 -2.05589 0
M  V30 9227 H 882.568 -4.57589 0.54307 0
M  V30 9228 H 880.883 -4.15064 0.333297 0
M  V30 9229 H 883.48 -4.7915 -2.37318 0
M  V30 9230 H 883.823 -3.12187 -2.75399 0
M  V30 9231 H 884.356 -3.79456 -1.19408 0
M  V30 9232 H 881.095 -6.55495 -0.0253787 0
M  V30 9233 H 880.615 -5.79196 -1.55861 0
M  V30 9234 H 882.294 -6.33469 -1.31627 0
M  V30 9235 N 882.426 0.269451 -1.5528 0
M  V30 9236 C 883.656 1.01724 -1.79821 0
M  V30 9237 C 884.064 1.80298 -0.573532 0
M  V30 9238 O 883.407 1.77666 0.466963 0
M  V30 9239 C 883.469 2.02043 -2.97353 0
M  V30 9240 C 883.133 1.42375 -4.34256 0
M  V30 9241 C 884.13 0.837611 -5.13108 0
M  V30 9242 C 881.815 1.44988 -4.8092 0
M  V30 9243 C 883.809 0.285557 -6.3676 0
M  V30 9244 C 881.496 0.893969 -6.04526 0
M  V30 9245 C 882.494 0.312809 -6.82283 0
M  V30 9246 O 882.182 -0.234582 -8.03558 0
M  V30 9247 H 881.914 0.30604 -0.602757 0
M  V30 9248 H 884.468 0.30454 -2.0313 0
M  V30 9249 H 882.698 2.77082 -2.69745 0
M  V30 9250 H 884.387 2.6298 -3.09187 0
M  V30 9251 H 885.153 0.81009 -4.78187 0
M  V30 9252 H 881.032 1.89162 -4.20403 0
M  V30 9253 H 884.576 -0.168696 -6.97396 0
M  V30 9254 H 880.473 0.918742 -6.38928 0
M  V30 9255 H 881.241 -0.124282 -8.18406 0
M  V30 9256 N 883.904 1.48273 0.534124 0
M  V30 9257 C 885.151 1.56079 1.29017 0
M  V30 9258 C 885.479 0.232912 1.931 0
M  V30 9259 O 884.734 -0.77642 1.79639 0
M  V30 9260 C 885.033 2.64468 2.40398 0
M  V30 9261 C 884.699 4.07034 1.93995 0
M  V30 9262 C 883.361 4.45838 1.81058 0
M  V30 9263 C 885.713 4.96395 1.58877 0
M  V30 9264 C 883.041 5.71812 1.31331 0
M  V30 9265 C 885.393 6.22854 1.10614 0
M  V30 9266 C 884.057 6.60518 0.962895 0
M  V30 9267 H 883.327 0.571135 0.472108 0
M  V30 9268 H 885.974 1.81973 0.5965 0
M  V30 9269 H 884.279 2.32419 3.15418 0
M  V30 9270 H 885.976 2.67725 2.98537 0
M  V30 9271 H 882.566 3.76387 2.05015 0
M  V30 9272 H 886.75 4.67096 1.67734 0
M  V30 9273 H 882.006 5.99722 1.18924 0
M  V30 9274 H 886.18 6.91495 0.825095 0
M  V30 9275 H 883.807 7.58019 0.575369 0
M  V30 9276 N 885.382 -0.782676 1.36792 0
M  V30 9277 C 886.607 -1.57676 1.34733 0
M  V30 9278 C 887.032 -1.87979 -0.0675253 0
M  V30 9279 O 886.39 -1.48404 -1.04144 0
M  V30 9280 C 886.438 -2.87047 2.18257 0
M  V30 9281 O 885.542 -3.80946 1.57969 0
M  V30 9282 H 884.883 -0.478034 0.460846 0
M  V30 9283 H 887.413 -0.969578 1.80168 0
M  V30 9284 H 887.423 -3.36254 2.31079 0
M  V30 9285 H 886.098 -2.64319 3.21104 0
M  V30 9286 H 884.675 -3.39558 1.54126 0
M  V30 9287 N 886.86 -1.21182 -1.00761 0
M  V30 9288 C 888.09 -1.05182 -1.77821 0
M  V30 9289 C 888.498 0.401527 -1.8489 0
M  V30 9290 O 887.841 1.29042 -1.30743 0
M  V30 9291 C 887.903 -1.57066 -3.23374 0
M  V30 9292 C 887.567 -3.05491 -3.39889 0
M  V30 9293 C 888.564 -4.03065 -3.28381 0
M  V30 9294 C 886.249 -3.44641 -3.65415 0
M  V30 9295 C 888.243 -5.37778 -3.4216 0
M  V30 9296 C 885.93 -4.79507 -3.78836 0
M  V30 9297 C 886.928 -5.75884 -3.67214 0
M  V30 9298 O 886.616 -7.08304 -3.80212 0
M  V30 9299 H 886.348 -0.369983 -0.565763 0
M  V30 9300 H 888.902 -1.60914 -1.27655 0
M  V30 9301 H 887.132 -0.957273 -3.74664 0
M  V30 9302 H 888.821 -1.36949 -3.82099 0
M  V30 9303 H 889.587 -3.74163 -3.08588 0
M  V30 9304 H 885.466 -2.7016 -3.73544 0
M  V30 9305 H 889.01 -6.12987 -3.33005 0
M  V30 9306 H 884.907 -5.08096 -3.98132 0
M  V30 9307 H 885.675 -7.15677 -3.97175 0
M  V30 9308 N 888.338 1.20213 -1.01915 0
M  V30 9309 C 889.586 1.89272 -0.708552 0
M  V30 9310 C 889.907 1.79394 0.76438 0
M  V30 9311 O 889.177 1.198 1.54999 0
M  V30 9312 H 887.757 0.700628 -0.259094 0
M  V30 9313 H 890.419 1.45985 -1.29129 0
M  V30 9314 H 889.515 2.95841 -0.994215 0
M  V30 9315 N 889.816 0.795718 1.36037 0
M  V30 9316 C 891.065 0.367575 1.98322 0
M  V30 9317 C 891.378 -1.06823 1.63854 0
M  V30 9318 O 892.584 -1.59895 2.19421 0
M  V30 9319 C 891.04 0.606272 3.54757 0
M  V30 9320 C 890.648 2.0539 3.98144 0
M  V30 9321 C 892.392 0.242947 4.23804 0
M  V30 9322 C 890.299 2.23893 5.47381 0
M  V30 9323 H 889.229 0.133699 0.742052 0
M  V30 9324 H 891.88 0.978242 1.5525 0
M  V30 9325 H 890.262 -0.0741957 3.9593 0
M  V30 9326 H 891.436 2.77129 3.68152 0
M  V30 9327 H 889.751 2.37607 3.41953 0
M  V30 9328 H 892.348 0.359382 5.33491 0
M  V30 9329 H 892.691 -0.809661 4.08351 0
M  V30 9330 H 893.224 0.876899 3.88015 0
M  V30 9331 H 889.963 3.27559 5.6779 0
M  V30 9332 H 889.483 1.56666 5.78978 0
M  V30 9333 H 891.162 2.04914 6.13693 0
M  V30 9334 N 891.294 -1.47756 0.548274 0
M  V30 9335 C 892.71 -1.58247 0.207401 0
M  V30 9336 C 892.91 -1.54804 -1.28988 0
M  V30 9337 O 891.966 -1.44673 -2.06944 0
M  V30 9338 C 893.279 -2.89129 0.826142 0
M  V30 9339 C 894.827 -3.02695 0.79655 0
M  V30 9340 C 895.302 -4.36264 1.3942 0
M  V30 9341 N 896.793 -4.42877 1.35698 0
M  V30 9342 C 897.528 -5.44773 1.78913 0
M  V30 9343 N 897.024 -6.53528 2.29942 0
M  V30 9344 N 898.817 -5.35765 1.70038 0
M  V30 9345 H 890.968 -1.48236 1.52117 0
M  V30 9346 H 893.231 -0.704957 0.633829 0
M  V30 9347 H 892.937 -2.97358 1.87806 0
M  V30 9348 H 892.811 -3.75891 0.313916 0
M  V30 9349 H 895.198 -2.94067 -0.246655 0
M  V30 9350 H 895.279 -2.17496 1.34644 0
M  V30 9351 H 894.923 -4.45646 2.43642 0
M  V30 9352 H 894.853 -5.20179 0.819827 0
M  V30 9353 H 897.344 -3.64874 0.983623 0
M  V30 9354 H 897.657 -7.27441 2.60863 0
M  V30 9355 H 896.002 -6.54442 2.33947 0
M  V30 9356 H 899.193 -4.49699 1.29955 0
M  V30 9357 H 899.366 -6.1504 2.04035 0
M  V30 9358 N 892.772 -0.284283 -1.55015 0
M  V30 9359 C 893.722 0.613913 -2.19579 0
M  V30 9360 C 894.706 1.11153 -1.16335 0
M  V30 9361 O 895.898 1.05508 -1.42116 0
M  V30 9362 C 893.027 1.79329 -2.92739 0
M  V30 9363 C 892.113 1.31242 -4.03282 0
M  V30 9364 N 892.504 0.548344 -5.02819 0
M  V30 9365 C 890.802 1.5946 -4.1652 0
M  V30 9366 C 891.503 0.294358 -5.80955 0
M  V30 9367 N 890.479 0.869406 -5.36603 0
M  V30 9368 H 894.281 0.0224088 -2.93891 0
M  V30 9369 H 891.795 -0.0882619 -1.6216 0
M  V30 9370 H 893.792 2.44814 -3.37449 0
M  V30 9371 H 892.452 2.38865 -2.1994 0
M  V30 9372 H 893.463 0.194812 -5.17533 0
M  V30 9373 H 890.14 2.19866 -3.54916 0
M  V30 9374 H 891.53 -0.318195 -6.71146 0
M  V30 9375 N 894.251 1.57596 -0.0117121 0
M  V30 9376 C 895.476 1.95764 0.684938 0
M  V30 9377 C 895.901 0.887285 1.65858 0
M  V30 9378 O 895.259 -0.153508 1.80649 0
M  V30 9379 C 895.307 3.33031 1.38285 0
M  V30 9380 O 894.411 3.28163 2.49765 0
M  V30 9381 H 893.752 0.638767 0.181309 0
M  V30 9382 H 896.282 2.04486 -0.0683883 0
M  V30 9383 H 896.292 3.68866 1.74362 0
M  V30 9384 H 894.967 4.10483 0.669043 0
M  V30 9385 H 893.544 3.04021 2.15929 0
M  V30 9386 N 895.729 -0.261212 1.5542 0
M  V30 9387 C 896.659 -1.32712 1.92119 0
M  V30 9388 C 897.64 -1.50934 0.784406 0
M  V30 9389 O 898.825 -1.63781 1.04352 0
M  V30 9390 C 895.955 -2.68453 2.20341 0
M  V30 9391 C 894.909 -2.64947 3.36136 0
M  V30 9392 C 894.235 -4.04349 3.49865 0
M  V30 9393 C 895.535 -2.23182 4.72215 0
M  V30 9394 H 897.229 -1.02245 2.81401 0
M  V30 9395 H 894.775 -0.490406 1.35392 0
M  V30 9396 H 896.728 -3.43144 2.44603 0
M  V30 9397 H 895.452 -3.00527 1.27871 0
M  V30 9398 H 894.111 -1.92714 3.11861 0
M  V30 9399 H 893.759 -4.33665 2.5484 0
M  V30 9400 H 893.459 -4.02895 4.27726 0
M  V30 9401 H 894.983 -4.80761 3.76432 0
M  V30 9402 H 896.397 -2.87599 4.95943 0
M  V30 9403 H 894.794 -2.32867 5.53076 0
M  V30 9404 H 895.864 -1.18327 4.70241 0
M  V30 9405 N 897.207 -1.48554 -0.526253 0
M  V30 9406 C 898.117 -1.66044 -1.65731 0
M  V30 9407 C 899.133 -0.542951 -1.65312 0
M  V30 9408 O 900.309 -0.814495 -1.84195 0
M  V30 9409 C 897.374 -1.69959 -3.02184 0
M  V30 9410 C 896.435 -2.93362 -3.13428 0
M  V30 9411 C 895.668 -2.97081 -4.43372 0
M  V30 9412 O 895.891 -2.09103 -5.3069 0
M  V30 9413 O 894.825 -3.8929 -4.59061 0
M  V30 9414 H 898.651 -2.61811 -1.53912 0
M  V30 9415 H 896.236 -1.31999 -0.699759 0
M  V30 9416 H 898.118 -1.75033 -3.83329 0
M  V30 9417 H 896.793 -0.773658 -3.14319 0
M  V30 9418 H 895.7 -2.93818 -2.31564 0
M  V30 9419 H 897.033 -3.85352 -3.06211 0
M  V30 9420 N 898.685 0.775411 -1.37205 0
M  V30 9421 C 899.933 1.53081 -1.3195 0
M  V30 9422 C 900.254 1.9476 0.0966864 0
M  V30 9423 O 899.524 1.66019 1.03993 0
M  V30 9424 H 898.104 0.567762 -0.485444 0
M  V30 9425 H 900.766 0.92309 -1.71654 0
M  V30 9426 H 899.862 2.4319 -1.95614 0
M  V30 9427 N 900.163 1.21714 1.00117 0
M  V30 9428 C 901.113 0.947259 2.07391 0
M  V30 9429 C 902.097 -0.0989662 1.60595 0
M  V30 9430 O 903.289 0.11047 1.76655 0
M  V30 9431 C 900.418 0.517954 3.3937 0
M  V30 9432 C 899.504 1.59846 3.92823 0
M  V30 9433 N 899.895 2.82438 4.19598 0
M  V30 9434 C 898.193 1.46822 4.2114 0
M  V30 9435 C 898.894 3.52247 4.62922 0
M  V30 9436 N 897.87 2.79696 4.66124 0
M  V30 9437 H 901.672 1.8786 2.26022 0
M  V30 9438 H 899.186 1.11344 1.18221 0
M  V30 9439 H 901.183 0.305951 4.15776 0
M  V30 9440 H 899.843 -0.40658 3.22144 0
M  V30 9441 H 900.854 3.18944 4.08038 0
M  V30 9442 H 897.531 0.609259 4.13031 0
M  V30 9443 H 898.921 4.57232 4.9233 0
M  V30 9444 N 901.641 -1.19671 1.02551 0
M  V30 9445 C 902.571 -2.25009 0.623965 0
M  V30 9446 C 903.552 -1.66129 -0.36538 0
M  V30 9447 O 904.737 -1.92599 -0.248842 0
M  V30 9448 C 901.867 -3.47287 -0.0294869 0
M  V30 9449 C 900.821 -4.18818 0.881781 0
M  V30 9450 C 900.147 -5.34618 0.0936189 0
M  V30 9451 C 901.447 -4.73986 2.19396 0
M  V30 9452 H 903.141 -2.58851 1.50454 0
M  V30 9453 H 900.687 -1.24425 0.724872 0
M  V30 9454 H 902.64 -4.20168 -0.322016 0
M  V30 9455 H 901.364 -3.12635 -0.944838 0
M  V30 9456 H 900.023 -3.47815 1.15845 0
M  V30 9457 H 899.671 -4.9621 -0.823661 0
M  V30 9458 H 899.371 -5.83409 0.700568 0
M  V30 9459 H 900.895 -6.10297 -0.192249 0
M  V30 9460 H 902.309 -5.38639 1.96319 0
M  V30 9461 H 900.706 -5.3325 2.75254 0
M  V30 9462 H 901.776 -3.92238 2.85092 0
M  V30 9463 N 903.119 -0.802921 -1.35613 0
M  V30 9464 C 904.535 -0.486214 -1.52014 0
M  V30 9465 C 904.735 0.993219 -1.75321 0
M  V30 9466 O 903.791 1.77835 -1.79251 0
M  V30 9467 C 905.104 -1.32839 -2.69767 0
M  V30 9468 C 906.652 -1.32346 -2.83643 0
M  V30 9469 C 907.127 -2.14967 -4.04417 0
M  V30 9470 N 908.618 -2.12484 -4.11588 0
M  V30 9471 C 909.353 -2.73173 -5.04147 0
M  V30 9472 N 908.849 -3.42774 -6.02061 0
M  V30 9473 N 910.642 -2.62834 -4.96865 0
M  V30 9474 H 902.793 -1.76109 -1.18741 0
M  V30 9475 H 905.056 -0.74936 -0.580658 0
M  V30 9476 H 904.762 -2.37813 -2.5911 0
M  V30 9477 H 904.636 -0.979058 -3.64272 0
M  V30 9478 H 907.023 -0.281586 -2.93753 0
M  V30 9479 H 907.104 -1.71264 -1.90006 0
M  V30 9480 H 906.748 -3.19193 -3.95068 0
M  V30 9481 H 906.678 -1.73411 -4.97228 0
M  V30 9482 H 909.169 -1.61839 -3.41492 0
M  V30 9483 H 909.482 -3.86378 -6.69277 0
M  V30 9484 H 907.827 -3.46878 -6.02246 0
M  V30 9485 H 911.018 -2.08049 -4.19325 0
M  V30 9486 H 911.191 -3.10421 -5.68808 0
M  V30 9487 N 904.597 1.47463 -0.556102 0
M  V30 9488 C 905.874 1.9557 0.0339892 0
M  V30 9489 C 906.254 1.49869 1.48669 0
M  V30 9490 O 905.602 0.737019 2.16288 0
M  V30 9491 C 905.812 3.48826 -0.110343 0
M  V30 9492 C 907.16 4.24585 0.0355716 0
M  V30 9493 O 908.184 3.5618 -0.0378356 0
M  V30 9494 O 907.043 5.46158 0.193299 0
M  V30 9495 H 904.137 0.824461 0.0647521 0
M  V30 9496 H 906.683 1.57868 -0.622547 0
M  V30 9497 H 905.455 3.74891 -1.12126 0
M  V30 9498 H 905.078 3.9329 0.583855 0
M  V30 9499 N 906.075 0.2925 1.54862 0
M  V30 9500 C 906.985 -0.597036 2.26876 0
M  V30 9501 C 908.001 -1.15558 1.30086 0
M  V30 9502 O 909.177 -1.18217 1.63054 0
M  V30 9503 C 906.242 -1.75664 2.98903 0
M  V30 9504 C 905.303 -1.23303 4.11212 0
M  V30 9505 C 904.536 -2.33736 4.79795 0
M  V30 9506 O 904.759 -3.53459 4.47686 0
M  V30 9507 O 903.693 -2.00908 5.67379 0
M  V30 9508 H 907.519 -0.0131242 3.03697 0
M  V30 9509 H 905.104 0.0592642 1.49282 0
M  V30 9510 H 906.986 -2.43241 3.4411 0
M  V30 9511 H 905.661 -2.32731 2.24984 0
M  V30 9512 H 904.568 -0.523222 3.70423 0
M  V30 9513 H 905.901 -0.707887 4.87083 0
M  V30 9514 N 907.553 -1.57587 0.0200696 0
M  V30 9515 C 908.501 -2.10814 -0.982868 0
M  V30 9516 C 909.495 -1.03263 -1.34287 0
M  V30 9517 O 910.701 -1.21708 -1.32617 0
M  V30 9518 H 907.076 -0.673409 -0.334701 0
M  V30 9519 H 909.047 -2.94034 -0.50856 0
M  V30 9520 C 907.796 -2.64301 -2.25921 0
M  V30 9521 H 907.119 -3.46703 -1.99091 0
M  V30 9522 H 908.559 -3.052 -2.94328 0
M  V30 9523 C 907.018 -1.56628 -2.98277 0
M  V30 9524 O 907.548 -0.960825 -3.9004 0
M  V30 9525 N 905.754 -1.28889 -2.60453 0
M  V30 9526 H 905.301 -1.7831 -1.85912 0
M  V30 9527 H 905.259 -0.570697 -3.09177 0
M  V30 9528 N 909.032 0.252966 -1.55557 0
M  V30 9529 C 909.98 1.33289 -1.90622 0
M  V30 9530 C 910.974 1.50133 -0.784638 0
M  V30 9531 O 912.18 1.51679 -0.969196 0
M  V30 9532 H 908.555 0.446196 -0.605321 0
M  V30 9533 H 910.526 1.00977 -2.80796 0
M  V30 9534 C 909.275 2.68254 -2.21213 0
M  V30 9535 H 908.598 2.5609 -3.07014 0
M  V30 9536 H 910.038 3.42707 -2.49656 0
M  V30 9537 C 908.497 3.20884 -1.02642 0
M  V30 9538 O 909.027 4.00783 -0.271292 0
M  V30 9539 N 907.233 2.7883 -0.818682 0
M  V30 9540 H 906.78 2.13966 -1.43444 0
M  V30 9541 H 906.738 3.14388 -0.0269989 0
M  V30 9542 N 910.51 1.48831 0.518367 0
M  V30 9543 C 911.42 1.6692 1.64848 0
M  V30 9544 C 912.436 0.551711 1.65022 0
M  V30 9545 O 913.612 0.824251 1.83761 0
M  V30 9546 C 910.677 1.71559 3.01278 0
M  V30 9547 C 909.738 2.9502 3.11868 0
M  V30 9548 C 908.971 2.99428 4.4179 0
M  V30 9549 O 909.194 2.11914 5.29574 0
M  V30 9550 O 908.128 3.91719 4.5699 0
M  V30 9551 H 911.954 2.62623 1.52521 0
M  V30 9552 H 909.539 1.32368 0.692749 0
M  V30 9553 H 911.421 1.77064 3.82396 0
M  V30 9554 H 910.096 0.790316 3.13904 0
M  V30 9555 H 909.003 2.95042 2.30003 0
M  V30 9556 H 910.336 3.8697 3.04163 0
M  V30 9557 N 911.988 -0.768124 1.37614 0
M  V30 9558 C 912.898 -1.91249 1.35871 0
M  V30 9559 C 913.914 -1.7208 0.257786 0
M  V30 9560 O 915.09 -1.95253 0.493782 0
M  V30 9561 C 912.155 -3.26423 1.16829 0
M  V30 9562 C 911.216 -3.5822 2.36594 0
M  V30 9563 C 910.449 -4.86945 2.1845 0
M  V30 9564 O 910.672 -5.58258 1.17064 0
M  V30 9565 O 909.606 -5.17888 3.06718 0
M  V30 9566 H 913.432 -1.95671 2.32264 0
M  V30 9567 H 911.017 -0.911382 1.18382 0
M  V30 9568 H 912.899 -4.07269 1.08212 0
M  V30 9569 H 911.574 -3.22845 0.235123 0
M  V30 9570 H 910.481 -2.77594 2.50783 0
M  V30 9571 H 911.814 -3.66545 3.2849 0
M  V30 9572 N 913.466 -1.22244 -0.994698 0
M  V30 9573 C 914.743 -0.954459 -1.70732 0
M  V30 9574 C 915.123 0.530945 -2.04314 0
M  V30 9575 O 914.471 1.49851 -1.72502 0
M  V30 9576 C 914.681 -1.85016 -2.95922 0
M  V30 9577 C 916.029 -2.10517 -3.68738 0
M  V30 9578 O 917.053 -1.82449 -3.05926 0
M  V30 9579 O 915.912 -2.58044 -4.81742 0
M  V30 9580 H 913.006 -0.35879 -0.745116 0
M  V30 9581 H 915.552 -1.33221 -1.0512 0
M  V30 9582 H 914.324 -2.85498 -2.67594 0
M  V30 9583 H 913.947 -1.47388 -3.69273 0
M  V30 9584 N 914.944 1.19125 -1.03184 0
M  V30 9585 C 915.907 2.20662 -0.619766 0
M  V30 9586 C 916.907 1.57621 0.318179 0
M  V30 9587 O 918.097 1.73885 0.104783 0
M  V30 9588 C 915.229 3.40774 0.0926696 0
M  V30 9589 H 916.422 2.58633 -1.5182 0
M  V30 9590 H 913.975 1.32855 -0.823364 0
M  V30 9591 H 914.71 3.08324 1.00531 0
M  V30 9592 H 914.495 3.87766 -0.581344 0
M  V30 9593 H 915.985 4.15977 0.367792 0
M  V30 9594 N 916.422 0.810101 1.35185 0
M  V30 9595 C 917.652 0.404109 2.02609 0
M  V30 9596 C 918.06 -0.990748 1.61186 0
M  V30 9597 O 917.403 -1.65038 0.80674 0
M  V30 9598 C 917.465 0.412047 3.57131 0
M  V30 9599 C 917.129 1.75802 4.21832 0
M  V30 9600 C 918.126 2.71687 4.43263 0
M  V30 9601 C 915.811 2.04299 4.58876 0
M  V30 9602 C 917.805 3.9425 5.00845 0
M  V30 9603 C 915.492 3.27125 5.16171 0
M  V30 9604 C 916.49 4.21918 5.37098 0
M  V30 9605 O 916.178 5.42576 5.93184 0
M  V30 9606 H 915.91 0.161914 0.656323 0
M  V30 9607 H 918.464 1.09605 1.73712 0
M  V30 9608 H 916.694 -0.336509 3.85233 0
M  V30 9609 H 918.383 0.0278817 4.0589 0
M  V30 9610 H 919.149 2.50964 4.15021 0
M  V30 9611 H 915.028 1.31324 4.41899 0
M  V30 9612 H 918.572 4.68251 5.17094 0
M  V30 9613 H 914.469 3.47718 5.43841 0
M  V30 9614 H 915.237 5.43921 6.11631 0
M  V30 9615 N 917.9 -1.47166 0.563914 0
M  V30 9616 C 919.311 -1.86231 0.132307 0
M  V30 9617 C 919.662 -1.46976 -1.29971 0
M  V30 9618 O 918.787 -0.875911 -1.97881 0
M  V30 9619 C 919.382 -3.37996 0.233335 0
M  V30 9620 C 917.941 -3.76127 -0.143278 0
M  V30 9621 C 917.088 -2.71212 0.577857 0
M  V30 9622 H 920.039 -1.38588 0.773249 0
M  V30 9623 H 920.06 -3.76558 -0.546309 0
M  V30 9624 H 919.572 -3.66535 1.27568 0
M  V30 9625 H 917.673 -3.53205 -1.18648 0
M  V30 9626 H 917.786 -4.78595 0.219952 0
M  V30 9627 H 916.15 -2.54692 0.020186 0
M  V30 9628 H 916.933 -3.02593 1.62149 0
M  V30 9629 N 919.378 -0.300708 -1.54705 0
M  V30 9630 C 920.655 0.361757 -1.92226 0
M  V30 9631 C 921.035 1.71714 -1.2279 0
M  V30 9632 O 920.383 2.2559 -0.363542 0
M  V30 9633 C 920.593 0.476699 -3.45729 0
M  V30 9634 C 921.941 0.7477 -4.17965 0
M  V30 9635 O 922.965 0.560521 -3.51762 0
M  V30 9636 O 921.824 1.10724 -5.35166 0
M  V30 9637 H 918.918 0.202213 -0.801897 0
M  V30 9638 H 921.464 -0.348746 -1.66078 0
M  V30 9639 H 920.236 -0.476132 -3.88392 0
M  V30 9640 H 919.859 1.23568 -3.77911 0
M  V30 9641 N 920.856 1.57574 -0.0284266 0
M  V30 9642 C 921.804 2.11332 0.971675 0
M  V30 9643 C 922.798 1.03974 1.33738 0
M  V30 9644 O 924.004 1.22409 1.31969 0
M  V30 9645 H 920.379 0.675174 0.331125 0
M  V30 9646 H 922.35 2.943 0.49296 0
M  V30 9647 C 921.099 2.65496 2.24516 0
M  V30 9648 H 920.422 3.47753 1.9725 0
M  V30 9649 H 921.862 3.06757 2.92705 0
M  V30 9650 C 920.321 1.58207 2.97443 0
M  V30 9651 O 920.851 0.981496 3.89525 0
M  V30 9652 N 919.057 1.30269 2.59766 0
M  V30 9653 H 918.604 1.79294 1.84963 0
M  V30 9654 H 918.562 0.587085 3.0887 0
M  V30 9655 N 922.334 -0.244713 1.55689 0
M  V30 9656 C 923.58 -0.973886 1.77886 0
M  V30 9657 C 923.913 -1.8489 0.594071 0
M  V30 9658 O 923.188 -1.90182 -0.407564 0
M  V30 9659 C 923.471 -1.83255 3.09983 0
M  V30 9660 C 923.324 -0.985571 4.3887 0
M  V30 9661 C 924.643 -2.81464 3.38329 0
M  V30 9662 H 921.762 -0.352629 0.647165 0
M  V30 9663 H 924.404 -0.244243 1.88424 0
M  V30 9664 H 922.554 -2.45464 3.01131 0
M  V30 9665 H 924.226 -0.382005 4.59716 0
M  V30 9666 H 922.469 -0.29002 4.32829 0
M  V30 9667 H 923.14 -1.62022 5.27686 0
M  V30 9668 H 925.616 -2.2939 3.47159 0
M  V30 9669 H 924.492 -3.38663 4.31971 0
M  V30 9670 H 924.753 -3.58037 2.59349 0
M  V30 9671 N 923.813 -1.49104 -0.510467 0
M  V30 9672 C 924.763 -1.6147 -1.6097 0
M  V30 9673 C 925.747 -0.470797 -1.53858 0
M  V30 9674 O 926.939 -0.723266 -1.61548 0
M  V30 9675 C 924.068 -1.67575 -2.99622 0
M  V30 9676 C 923.154 -2.87511 -3.11766 0
M  V30 9677 N 923.545 -4.11704 -2.93826 0
M  V30 9678 C 921.843 -2.85251 -3.42852 0
M  V30 9679 C 922.544 -4.92276 -3.09902 0
M  V30 9680 N 921.52 -4.2546 -3.38355 0
M  V30 9681 H 925.322 -2.5522 -1.45739 0
M  V30 9682 H 922.836 -1.45745 -0.716383 0
M  V30 9683 H 924.833 -1.74531 -3.78609 0
M  V30 9684 H 923.493 -0.749557 -3.1593 0
M  V30 9685 H 924.504 -4.41834 -2.70191 0
M  V30 9686 H 921.181 -2.0197 -3.65396 0
M  V30 9687 H 922.571 -6.00905 -3.00604 0
M  V30 9688 N 925.291 0.760815 -1.38019 0
M  V30 9689 C 926.254 1.85604 -1.34476 0
M  V30 9690 C 927.254 1.58897 -0.24666 0
M  V30 9691 O 928.444 1.66776 -0.50314 0
M  V30 9692 C 925.576 3.22945 -1.09176 0
M  V30 9693 H 926.769 1.90155 -2.31908 0
M  V30 9694 H 924.322 0.961746 -1.23208 0
M  V30 9695 H 925.057 3.24066 -0.123216 0
M  V30 9696 H 924.842 3.43723 -1.88672 0
M  V30 9697 H 926.332 4.03022 -1.09375 0
M  V30 9698 N 926.769 1.22769 0.988202 0
M  V30 9699 C 927.732 1.00325 2.06076 0
M  V30 9700 C 928.732 -0.0320618 1.60768 0
M  V30 9701 O 929.922 0.206912 1.72967 0
M  V30 9702 C 927.054 0.516376 3.36966 0
M  V30 9703 H 928.247 1.95499 2.27421 0
M  V30 9704 H 925.8 1.04704 1.16047 0
M  V30 9705 H 926.535 -0.439498 3.21308 0
M  V30 9706 H 926.32 1.26337 3.71189 0
M  V30 9707 H 927.81 0.37974 4.1587 0
M  V30 9708 N 928.247 -1.18576 1.03814 0
M  V30 9709 C 929.21 -2.2033 0.63146 0
M  V30 9710 C 930.21 -1.57787 -0.309816 0
M  V30 9711 O 931.4 -1.73938 -0.0955598 0
M  V30 9712 C 928.532 -3.40818 -0.0745963 0
M  V30 9713 H 929.725 -2.57824 1.53189 0
M  V30 9714 H 927.278 -1.32416 0.830398 0
M  V30 9715 H 928.013 -3.08853 -0.988947 0
M  V30 9716 H 927.798 -3.87453 0.6019 0
M  V30 9717 H 929.288 -4.16166 -0.345727 0
M  V30 9718 N 929.725 -0.817259 -1.34754 0
M  V30 9719 C 930.635 -0.236946 -2.334 0
M  V30 9720 C 931.651 0.625685 -1.62361 0
M  V30 9721 O 932.827 0.534921 -1.94166 0
M  V30 9722 C 929.892 0.596215 -3.41535 0
M  V30 9723 C 928.953 -0.288154 -4.28332 0
M  V30 9724 C 928.186 0.505337 -5.31302 0
M  V30 9725 O 928.409 1.73912 -5.43241 0
M  V30 9726 O 927.343 -0.109374 -6.01801 0
M  V30 9727 H 931.169 -1.05327 -2.84851 0
M  V30 9728 H 928.754 -0.579275 -1.37713 0
M  V30 9729 H 930.636 1.07041 -4.07578 0
M  V30 9730 H 929.311 1.38997 -2.92338 0
M  V30 9731 H 928.218 -0.809724 -3.65232 0
M  V30 9732 H 929.551 -1.04612 -4.80955 0
M  V30 9733 N 931.203 1.46865 -0.571711 0
M  V30 9734 C 932.113 2.33979 0.170571 0
M  V30 9735 C 933.129 1.49083 0.897239 0
M  V30 9736 O 934.305 1.81979 0.862888 0
M  V30 9737 C 931.37 3.26063 1.17831 0
M  V30 9738 C 930.431 4.26855 0.457499 0
M  V30 9739 C 929.664 5.14539 1.41722 0
M  V30 9740 O 929.887 5.04945 2.65305 0
M  V30 9741 O 928.821 5.94612 0.9338 0
M  V30 9742 H 932.647 2.98781 -0.544396 0
M  V30 9743 H 930.232 1.4566 -0.332198 0
M  V30 9744 H 932.114 3.82903 1.75965 0
M  V30 9745 H 930.789 2.63871 1.87493 0
M  V30 9746 H 929.696 3.73734 -0.165406 0
M  V30 9747 H 931.029 4.91802 -0.197953 0
M  V30 9748 N 932.681 0.308908 1.54543 0
M  V30 9749 C 933.628 -0.563659 2.23811 0
M  V30 9750 C 934.598 -1.12332 1.22355 0
M  V30 9751 O 935.783 -1.16638 1.50997 0
M  V30 9752 C 932.923 -1.72585 2.98845 0
M  V30 9753 C 932.036 -1.19682 4.1509 0
M  V30 9754 C 931.171 -2.32351 4.77688 0
M  V30 9755 C 930.21 -1.76623 5.86064 0
M  V30 9756 N 929.347 -2.82896 6.42584 0
M  V30 9757 H 934.187 0.0336288 2.97981 0
M  V30 9758 H 931.724 0.0283666 1.47073 0
M  V30 9759 H 933.682 -2.40951 3.40586 0
M  V30 9760 H 932.312 -2.29464 2.27037 0
M  V30 9761 H 931.364 -0.405173 3.78236 0
M  V30 9762 H 932.676 -0.748923 4.93146 0
M  V30 9763 H 931.83 -3.0865 5.22322 0
M  V30 9764 H 930.569 -2.80472 3.98982 0
M  V30 9765 H 929.574 -0.988171 5.40847 0
M  V30 9766 H 930.799 -1.29398 6.66658 0
M  V30 9767 H 928.745 -3.30336 5.66758 0
M  V30 9768 H 928.662 -2.42626 7.16009 0
M  V30 9769 H 929.93 -3.59068 6.91875 0
M  V30 9770 N 934.159 -1.57557 0.0367827 0
M  V30 9771 C 935.384 -1.96828 -0.653707 0
M  V30 9772 C 935.809 -0.913559 -1.64425 0
M  V30 9773 O 935.167 0.124749 -1.8087 0
M  V30 9774 C 935.215 -3.35189 -1.32969 0
M  V30 9775 O 934.319 -3.32095 -2.44513 0
M  V30 9776 H 933.66 -0.64157 -0.171124 0
M  V30 9777 H 936.19 -2.04351 0.100912 0
M  V30 9778 H 936.2 -3.71593 -1.68472 0
M  V30 9779 H 934.875 -4.11496 -0.603654 0
M  V30 9780 H 933.452 -3.07418 -2.11065 0
M  V30 9781 N 935.637 0.236453 -1.55816 0
M  V30 9782 C 936.6 1.27633 -1.90375 0
M  V30 9783 C 937.6 1.40557 -0.781048 0
M  V30 9784 O 938.79 1.39078 -1.04895 0
M  V30 9785 C 935.922 2.65247 -2.14142 0
M  V30 9786 H 937.115 0.982019 -2.83366 0
M  V30 9787 H 934.668 0.476215 -1.48869 0
M  V30 9788 H 935.403 2.99801 -1.23653 0
M  V30 9789 H 935.188 2.57246 -2.95917 0
M  V30 9790 H 936.678 3.40313 -2.42026 0
M  V30 9791 N 937.115 1.49373 0.502552 0
M  V30 9792 C 938.364 1.58028 1.25339 0
M  V30 9793 C 938.677 0.271494 1.93707 0
M  V30 9794 O 939.883 0.236584 2.70467 0
M  V30 9795 C 938.339 2.78817 2.27572 0
M  V30 9796 C 937.947 4.16448 1.65151 0
M  V30 9797 C 939.691 2.96802 3.03494 0
M  V30 9798 C 937.598 5.28461 2.65486 0
M  V30 9799 H 936.528 0.588396 0.471494 0
M  V30 9800 H 939.179 1.75756 0.52744 0
M  V30 9801 H 937.561 2.5458 3.03323 0
M  V30 9802 H 938.735 4.50816 0.954029 0
M  V30 9803 H 937.05 4.03809 1.01625 0
M  V30 9804 H 939.647 3.77656 3.78524 0
M  V30 9805 H 939.99 2.07303 3.61014 0
M  V30 9806 H 940.523 3.21071 2.34858 0
M  V30 9807 H 937.262 6.20015 2.12749 0
M  V30 9808 H 936.782 4.9855 3.33479 0
M  V30 9809 H 938.461 5.5773 3.27943 0
M  V30 9810 N 938.594 -0.753485 1.38421 0
M  V30 9811 C 939.526 -1.87692 1.31547 0
M  V30 9812 C 940.539 -1.612 0.227671 0
M  V30 9813 O 941.728 -1.71778 0.485238 0
M  V30 9814 C 938.828 -3.23329 1.01545 0
M  V30 9815 C 938.001 -3.77324 2.21236 0
M  V30 9816 C 937.06 -4.91478 1.87977 0
M  V30 9817 O 936.086 -5.06106 2.60472 0
M  V30 9818 N 937.288 -5.74466 0.834796 0
M  V30 9819 H 940.053 -1.94099 2.28354 0
M  V30 9820 H 937.614 -0.933421 1.32283 0
M  V30 9821 H 939.606 -3.9724 0.773477 0
M  V30 9822 H 938.176 -3.12307 0.135334 0
M  V30 9823 H 937.396 -2.94978 2.61498 0
M  V30 9824 H 938.684 -4.10131 3.01115 0
M  V30 9825 H 938.082 -5.65217 0.233606 0
M  V30 9826 H 936.639 -6.48524 0.652703 0
M  V30 9827 N 940.072 -1.23292 -0.981677 0
M  V30 9828 C 941.035 -1.01417 -2.05542 0
M  V30 9829 C 942.035 0.0235354 -1.60783 0
M  V30 9830 O 943.225 -0.216082 -1.72855 0
M  V30 9831 C 940.357 -0.534239 -3.36688 0
M  V30 9832 H 941.55 -1.96702 -2.26381 0
M  V30 9833 H 939.103 -1.05318 -1.1549 0
M  V30 9834 H 939.838 0.422452 -3.21537 0
M  V30 9835 H 939.623 -1.28304 -3.70514 0
M  V30 9836 H 941.113 -0.40179 -4.15663 0
M  V30 9837 N 941.55 1.18024 -1.04442 0
M  V30 9838 C 942.498 2.23834 -0.632557 0
M  V30 9839 C 943.492 1.65902 0.342488 0
M  V30 9840 O 944.698 1.78778 0.20937 0
M  V30 9841 H 941.073 0.728544 -0.186353 0
M  V30 9842 H 943.044 2.55876 -1.53526 0
M  V30 9843 C 941.793 3.47697 -0.0153661 0
M  V30 9844 H 941.116 3.92574 -0.756704 0
M  V30 9845 H 942.556 4.23345 0.235541 0
M  V30 9846 C 941.015 3.13416 1.23579 0
M  V30 9847 O 941.545 3.27499 2.3261 0
M  V30 9848 N 939.751 2.67708 1.13053 0
M  V30 9849 H 939.298 2.56449 0.243277 0
M  V30 9850 H 939.256 2.45143 1.96855 0
M  V30 9851 N 943.028 0.824394 1.34319 0
M  V30 9852 C 944.305 0.335692 1.92698 0
M  V30 9853 C 944.685 -1.17715 1.75232 0
M  V30 9854 O 944.033 -1.98493 1.13194 0
M  V30 9855 C 944.243 0.766647 3.40475 0
M  V30 9856 C 945.591 0.766323 4.17627 0
M  V30 9857 O 946.615 0.709321 3.49066 0
M  V30 9858 O 945.474 0.840856 5.39992 0
M  V30 9859 H 942.568 0.0919996 0.821867 0
M  V30 9860 H 945.114 0.909282 1.43283 0
M  V30 9861 H 943.886 1.80859 3.46995 0
M  V30 9862 H 943.509 0.168833 3.97241 0
M  V30 9863 N 944.506 -1.46559 0.579492 0
M  V30 9864 C 945.456 -2.27316 -0.17645 0
M  V30 9865 C 946.44 -1.35681 -0.864835 0
M  V30 9866 O 947.632 -1.59879 -0.759462 0
M  V30 9867 C 944.761 -3.21957 -1.19157 0
M  V30 9868 C 943.847 -4.21077 -0.505459 0
M  V30 9869 N 944.238 -5.03908 0.437133 0
M  V30 9870 C 942.536 -4.39535 -0.75661 0
M  V30 9871 C 943.237 -5.75635 0.837819 0
M  V30 9872 N 942.213 -5.43276 0.187679 0
M  V30 9873 H 946.015 -2.88747 0.547932 0
M  V30 9874 H 943.529 -1.5737 0.401048 0
M  V30 9875 H 945.526 -3.78518 -1.74728 0
M  V30 9876 H 944.186 -2.62085 -1.9168 0
M  V30 9877 H 945.197 -5.11487 0.812488 0
M  V30 9878 H 941.874 -3.90815 -1.46867 0
M  V30 9879 H 943.264 -6.52235 1.61364 0
M  V30 9880 N 945.984 -0.3171 -1.54377 0
M  V30 9881 C 946.934 0.567199 -2.20832 0
M  V30 9882 C 947.918 1.08661 -1.18666 0
M  V30 9883 O 949.11 1.0247 -1.44322 0
M  V30 9884 C 946.239 1.73079 -2.96477 0
M  V30 9885 C 945.325 1.22658 -4.05975 0
M  V30 9886 N 945.716 0.441565 -5.03869 0
M  V30 9887 C 944.014 1.50589 -4.19808 0
M  V30 9888 C 944.715 0.171063 -5.81448 0
M  V30 9889 N 943.691 0.755389 -5.38326 0
M  V30 9890 H 947.493 -0.0399349 -2.93873 0
M  V30 9891 H 945.007 -0.122639 -1.61936 0
M  V30 9892 H 947.004 2.37601 -3.42566 0
M  V30 9893 H 945.664 2.34146 -2.24957 0
M  V30 9894 H 946.675 0.0849921 -5.1783 0
M  V30 9895 H 943.352 2.12288 -3.595 0
M  V30 9896 H 944.742 -0.460484 -6.7032 0
M  V30 9897 N 947.462 1.57535 -0.0451378 0
M  V30 9898 C 948.873 1.80116 0.491426 0
M  V30 9899 C 949.224 0.956846 1.71286 0
M  V30 9900 O 948.349 0.17173 2.15718 0
M  V30 9901 C 948.944 3.26674 0.898315 0
M  V30 9902 C 947.503 3.50194 1.37989 0
M  V30 9903 C 946.65 2.75054 0.352202 0
M  V30 9904 H 949.601 1.56368 -0.271065 0
M  V30 9905 H 949.622 3.37263 1.76164 0
M  V30 9906 H 949.134 3.88099 0.009141 0
M  V30 9907 H 947.235 2.94041 2.28846 0
M  V30 9908 H 947.348 4.58909 1.37622 0
M  V30 9909 H 945.712 2.4101 0.823784 0
M  V30 9910 H 946.495 3.39203 -0.528782 0
M  V30 9911 N 948.94 -0.228186 1.55939 0
M  V30 9912 C 950.356 -0.577583 1.48782 0
M  V30 9913 C 950.556 -1.87461 0.738972 0
M  V30 9914 O 949.612 -2.50988 0.275929 0
M  V30 9915 C 950.925 -0.662961 2.93301 0
M  V30 9916 C 952.473 -0.754035 3.03782 0
M  V30 9917 C 952.948 -0.870815 4.49645 0
M  V30 9918 N 954.439 -0.935208 4.53661 0
M  V30 9919 C 955.174 -1.04516 5.63794 0
M  V30 9920 N 954.67 -1.11948 6.83696 0
M  V30 9921 N 956.463 -1.07978 5.51631 0
M  V30 9922 H 948.614 0.623018 2.03057 0
M  V30 9923 H 950.877 0.217692 0.922667 0
M  V30 9924 H 950.583 0.220375 3.51009 0
M  V30 9925 H 950.457 -1.52876 3.44831 0
M  V30 9926 H 952.844 -1.62782 2.46143 0
M  V30 9927 H 952.925 0.137301 2.55431 0
M  V30 9928 H 952.569 -0.0015186 5.079 0
M  V30 9929 H 952.499 -1.77747 4.95695 0
M  V30 9930 H 954.99 -0.88836 3.6731 0
M  V30 9931 H 955.303 -1.20297 7.6338 0
M  V30 9932 H 953.648 -1.08873 6.8642 0
M  V30 9933 H 956.839 -1.01833 4.56889 0
M  V30 9934 H 957.012 -1.16202 6.37496 0
M  V30 9935 N 950.418 -1.49637 -0.494624 0
M  V30 9936 C 951.366 -1.6727 -1.61627 0
M  V30 9937 C 952.36 -0.538587 -1.6061 0
M  V30 9938 O 953.566 -0.718411 -1.65042 0
M  V30 9939 H 949.941 -0.527557 -0.535899 0
M  V30 9940 H 951.912 -2.61405 -1.43909 0
M  V30 9941 C 950.661 -1.7624 -2.99725 0
M  V30 9942 H 949.984 -2.62886 -3.01216 0
M  V30 9943 H 951.424 -1.92611 -3.77726 0
M  V30 9944 C 949.883 -0.508632 -3.33038 0
M  V30 9945 O 950.413 0.362828 -4.00058 0
M  V30 9946 N 948.619 -0.369667 -2.88239 0
M  V30 9947 H 948.166 -1.07984 -2.33875 0
M  V30 9948 H 948.124 0.468112 -3.10896 0
M  V30 9949 N 951.896 0.746133 -1.38819 0
M  V30 9950 C 952.826 1.87344 -1.39372 0
M  V30 9951 C 953.807 1.68123 -0.258583 0
M  V30 9952 O 954.992 1.88606 -0.462769 0
M  V30 9953 C 952.122 3.24962 -1.22543 0
M  V30 9954 C 951.076 3.58799 -2.33339 0
M  V30 9955 C 950.402 4.95235 -2.01609 0
M  V30 9956 C 951.702 3.62911 -3.75624 0
M  V30 9957 H 953.396 1.87138 -2.33709 0
M  V30 9958 H 950.942 0.898937 -1.12495 0
M  V30 9959 H 952.895 4.03488 -1.21554 0
M  V30 9960 H 951.619 3.25667 -0.246707 0
M  V30 9961 H 950.278 2.82596 -2.33527 0
M  V30 9962 H 949.926 4.92508 -1.02202 0
M  V30 9963 H 949.626 5.18843 -2.75819 0
M  V30 9964 H 951.15 5.76131 -2.02251 0
M  V30 9965 H 952.564 4.31535 -3.77426 0
M  V30 9966 H 950.961 3.98031 -4.491 0
M  V30 9967 H 952.031 2.62967 -4.07402 0
M  V30 9968 N 953.375 1.23811 0.975125 0
M  V30 9969 C 954.6 1.10109 1.75757 0
M  V30 9970 C 955.025 -0.342922 1.84948 0
M  V30 9971 O 954.383 -1.24814 1.31496 0
M  V30 9972 C 954.431 1.73724 3.15994 0
M  V30 9973 O 953.535 1.00297 4.00018 0
M  V30 9974 H 952.876 0.385627 0.540544 0
M  V30 9975 H 955.406 1.63971 1.22372 0
M  V30 9976 H 955.416 1.79178 3.6655 0
M  V30 9977 H 954.091 2.78794 3.0862 0
M  V30 9978 H 952.668 1.02575 3.58515 0
M  V30 9979 N 954.853 -1.17469 1.05066 0
M  V30 9980 C 956.078 -1.92162 0.780298 0
M  V30 9981 C 956.503 -1.76222 -0.657832 0
M  V30 9982 O 955.861 -1.0791 -1.45688 0
M  V30 9983 C 955.909 -3.41292 1.16414 0
M  V30 9984 O 955.013 -4.1134 0.295531 0
M  V30 9985 H 954.354 -0.599127 0.286257 0
M  V30 9986 H 956.884 -1.48903 1.40318 0
M  V30 9987 H 956.894 -3.92029 1.13036 0
M  V30 9988 H 955.569 -3.52214 2.21175 0
M  V30 9989 H 954.146 -3.70857 0.389797 0
M  V30 9990 N 956.331 -0.831506 -1.3388 0
M  V30 9991 C 957.742 -0.481375 -1.80388 0
M  V30 9992 C 958.093 0.998993 -1.68863 0
M  V30 9993 O 957.218 1.77795 -1.2336 0
M  V30 9994 C 957.813 -0.86699 -3.27519 0
M  V30 9995 C 956.372 -0.569105 -3.72073 0
M  V30 9996 C 955.519 -1.07929 -2.55434 0
M  V30 9997 H 958.47 -1.02089 -1.21505 0
M  V30 9998 H 958.491 -0.174128 -3.80101 0
M  V30 9999 H 958.003 -1.94447 -3.35875 0
M  V30 10000 H 956.104 0.498607 -3.69249 0
M  V30 10001 H 956.217 -1.11918 -4.65845 0
M  V30 10002 H 954.581 -0.500465 -2.49735 0
M  V30 10003 H 955.364 -2.16339 -2.66556 0
M  V30 10004 N 957.809 1.4625 -0.587256 0
M  V30 10005 C 959.056 2.02363 -0.0745746 0
M  V30 10006 C 959.384 1.4582 1.28712 0
M  V30 10007 O 958.639 0.614922 1.85788 0
M  V30 10008 C 958.938 3.57382 0.036328 0
M  V30 10009 C 958.604 4.32985 -1.25837 0
M  V30 10010 C 957.266 4.53358 -1.61306 0
M  V30 10011 C 959.618 4.76361 -2.11494 0
M  V30 10012 C 956.946 5.14361 -2.82223 0
M  V30 10013 C 959.298 5.38699 -3.31641 0
M  V30 10014 C 957.962 5.57299 -3.67388 0
M  V30 10015 H 957.232 0.740497 -0.0272888 0
M  V30 10016 H 959.879 1.75565 -0.764804 0
M  V30 10017 H 958.184 3.83342 0.809712 0
M  V30 10018 H 959.881 3.9848 0.448838 0
M  V30 10019 H 956.471 4.17427 -0.972251 0
M  V30 10020 H 960.655 4.60372 -1.85394 0
M  V30 10021 H 955.911 5.26952 -3.10051 0
M  V30 10022 H 960.085 5.71267 -3.9828 0
M  V30 10023 H 957.712 6.04338 -4.61173 0
M  V30 10024 N 959.287 0.325282 1.54207 0
M  V30 10025 C 960.536 -0.27768 1.99779 0
M  V30 10026 C 960.849 -1.5311 1.21723 0
M  V30 10027 O 962.055 -2.21017 1.57682 0
M  V30 10028 C 960.511 -0.545329 3.55745 0
M  V30 10029 C 960.119 0.691143 4.42637 0
M  V30 10030 C 961.863 -1.10815 4.09781 0
M  V30 10031 C 959.77 0.395302 5.90077 0
M  V30 10032 H 958.7 -0.107536 0.746292 0
M  V30 10033 H 961.351 0.437773 1.78202 0
M  V30 10034 H 959.733 -1.32101 3.73317 0
M  V30 10035 H 960.907 1.46653 4.3684 0
M  V30 10036 H 959.222 1.1743 3.99499 0
M  V30 10037 H 961.819 -1.34414 5.1753 0
M  V30 10038 H 962.162 -2.05806 3.6187 0
M  V30 10039 H 962.695 -0.393608 3.95848 0
M  V30 10040 H 959.434 1.31443 6.42186 0
M  V30 10041 H 958.954 -0.34235 5.98822 0
M  V30 10042 H 960.633 0.00576877 6.47 0
M  V30 10043 N 960.765 -1.57509 0.0534917 0
M  V30 10044 C 962.012 -1.92782 -0.619772 0
M  V30 10045 C 962.34 -0.932046 -1.70714 0
M  V30 10046 O 961.595 0.0552891 -1.95622 0
M  V30 10047 C 961.894 -3.34734 -1.25251 0
M  V30 10048 C 961.56 -4.49946 -0.293113 0
M  V30 10049 C 960.222 -4.81191 -0.0291223 0
M  V30 10050 C 962.574 -5.19925 0.364271 0
M  V30 10051 C 959.902 -5.79761 0.899649 0
M  V30 10052 C 962.254 -6.19489 1.28125 0
M  V30 10053 C 960.918 -6.49161 1.55389 0
M  V30 10054 H 960.188 -0.705441 -0.226791 0
M  V30 10055 H 962.835 -1.91121 0.120466 0
M  V30 10056 H 961.14 -3.32774 -2.06807 0
M  V30 10057 H 962.837 -3.59308 -1.78042 0
M  V30 10058 H 959.427 -4.25566 -0.509053 0
M  V30 10059 H 963.611 -4.95997 0.173411 0
M  V30 10060 H 958.867 -6.01085 1.11833 0
M  V30 10061 H 963.041 -6.72824 1.79669 0
M  V30 10062 H 960.668 -7.25354 2.2752 0
M  V30 10063 N 962.243 0.219913 -1.56058 0
M  V30 10064 C 963.193 1.27606 -1.88946 0
M  V30 10065 C 964.177 1.42209 -0.752691 0
M  V30 10066 O 965.369 1.44996 -1.01514 0
M  V30 10067 C 962.498 2.62614 -2.21108 0
M  V30 10068 C 961.584 2.51906 -3.4118 0
M  V30 10069 N 961.975 2.10851 -4.59756 0
M  V30 10070 C 960.273 2.82861 -3.44827 0
M  V30 10071 C 960.974 2.11434 -5.41914 0
M  V30 10072 N 959.95 2.51985 -4.81669 0
M  V30 10073 H 963.752 0.94957 -2.78137 0
M  V30 10074 H 961.266 0.428468 -1.56646 0
M  V30 10075 H 963.263 3.38869 -2.42844 0
M  V30 10076 H 961.923 2.96108 -1.3323 0
M  V30 10077 H 962.934 1.81956 -4.84884 0
M  V30 10078 H 959.611 3.20716 -2.67297 0
M  V30 10079 H 961.001 1.81803 -6.46836 0
M  V30 10080 N 963.721 1.49897 0.486681 0
M  V30 10081 C 964.631 1.70379 1.6127 0
M  V30 10082 C 965.647 0.58659 1.63814 0
M  V30 10083 O 966.823 0.863044 1.81971 0
M  V30 10084 C 963.888 1.77911 2.97571 0
M  V30 10085 C 962.949 3.01569 3.0554 0
M  V30 10086 C 962.182 3.08732 4.35339 0
M  V30 10087 O 962.405 2.23099 5.2496 0
M  V30 10088 O 961.339 4.01325 4.48578 0
M  V30 10089 H 965.165 2.65799 1.46916 0
M  V30 10090 H 962.75 1.33808 0.664516 0
M  V30 10091 H 964.632 1.85135 3.78554 0
M  V30 10092 H 963.307 0.856722 3.12157 0
M  V30 10093 H 962.214 2.99854 2.23693 0
M  V30 10094 H 963.547 3.93335 2.95886 0
M  V30 10095 N 965.199 -0.738761 1.39212 0
M  V30 10096 C 966.146 -1.85273 1.37631 0
M  V30 10097 C 967.116 -1.64407 0.236572 0
M  V30 10098 O 968.301 -1.85866 0.431104 0
M  V30 10099 C 965.441 -3.22745 1.22188 0
M  V30 10100 C 964.554 -3.55342 2.45674 0
M  V30 10101 C 963.689 -4.82195 2.22847 0
M  V30 10102 C 962.728 -5.07625 3.42029 0
M  V30 10103 N 961.865 -6.25679 3.18543 0
M  V30 10104 H 966.705 -1.85959 2.32859 0
M  V30 10105 H 964.242 -0.908716 1.15675 0
M  V30 10106 H 966.2 -4.02095 1.11245 0
M  V30 10107 H 964.83 -3.21347 0.30592 0
M  V30 10108 H 963.882 -2.70722 2.67233 0
M  V30 10109 H 965.194 -3.70054 3.34457 0
M  V30 10110 H 964.348 -5.69518 2.09126 0
M  V30 10111 H 963.087 -4.6965 1.31454 0
M  V30 10112 H 962.092 -4.18765 3.56253 0
M  V30 10113 H 963.317 -5.22058 4.34319 0
M  V30 10114 H 961.263 -6.14429 2.2981 0
M  V30 10115 H 961.18 -6.40961 4.0088 0
M  V30 10116 H 962.448 -7.15851 3.08508 0
M  V30 10117 N 966.677 -1.24326 -0.968545 0
M  V30 10118 C 967.905 -1.10947 -1.74638 0
M  V30 10119 C 968.32 0.338064 -1.85749 0
M  V30 10120 O 967.677 1.23331 -1.3452 0
M  V30 10121 C 967.728 -1.74254 -3.1673 0
M  V30 10122 O 967.449 -3.13347 -3.06178 0
M  V30 10123 C 968.95 -1.66473 -4.10855 0
M  V30 10124 H 966.17 -0.38767 -0.547679 0
M  V30 10125 H 968.714 -1.64415 -1.21605 0
M  V30 10126 H 966.869 -1.2479 -3.66751 0
M  V30 10127 H 967.283 -3.44255 -3.95713 0
M  V30 10128 H 968.757 -2.15452 -5.08217 0
M  V30 10129 H 969.234 -0.625785 -4.34719 0
M  V30 10130 H 969.84 -2.15359 -3.66743 0
M  V30 10131 N 968.156 1.1691 -1.05688 0
M  V30 10132 C 969.381 1.91745 -0.790478 0
M  V30 10133 C 969.806 1.76568 0.648478 0
M  V30 10134 O 969.164 1.08682 1.45114 0
M  V30 10135 C 969.212 3.4067 -1.18222 0
M  V30 10136 O 968.316 4.11177 -0.317341 0
M  V30 10137 H 967.657 0.5976 -0.28943 0
M  V30 10138 H 970.187 1.48157 -1.41105 0
M  V30 10139 H 970.197 3.91424 -1.15114 0
M  V30 10140 H 968.872 3.51036 -2.2304 0
M  V30 10141 H 967.449 3.70645 -0.409459 0
M  V30 10142 N 969.634 0.838594 1.33437 0
M  V30 10143 C 970.544 0.274048 2.32994 0
M  V30 10144 C 971.56 -0.599776 1.63336 0
M  V30 10145 O 972.736 -0.503963 1.94993 0
M  V30 10146 C 969.801 -0.541804 3.4244 0
M  V30 10147 C 968.862 0.356262 4.27819 0
M  V30 10148 C 968.095 -0.420747 5.32039 0
M  V30 10149 O 968.318 -1.65247 5.45939 0
M  V30 10150 O 967.252 0.205101 6.0155 0
M  V30 10151 H 971.078 1.09846 2.83139 0
M  V30 10152 H 968.663 0.601111 1.36774 0
M  V30 10153 H 970.545 -1.00544 4.0923 0
M  V30 10154 H 969.22 -1.34328 2.94513 0
M  V30 10155 H 968.127 0.867726 3.63897 0
M  V30 10156 H 969.46 1.1225 4.79229 0
M  V30 10157 N 971.112 -1.45937 0.595003 0
M  V30 10158 C 972.359 -2.0232 0.0853053 0
M  V30 10159 C 972.687 -1.465 -1.27937 0
M  V30 10160 O 971.942 -0.624767 -1.85459 0
M  V30 10161 C 972.241 -3.57396 -0.0173747 0
M  V30 10162 C 971.907 -4.32311 1.28131 0
M  V30 10163 C 970.569 -4.52496 1.63708 0
M  V30 10164 C 972.921 -4.75233 2.14017 0
M  V30 10165 C 970.249 -5.12857 2.84947 0
M  V30 10166 C 972.601 -5.36933 3.34493 0
M  V30 10167 C 971.265 -5.55343 3.70338 0
M  V30 10168 H 970.535 -0.740342 0.0312154 0
M  V30 10169 H 973.182 -1.75157 0.774103 0
M  V30 10170 H 971.487 -3.83766 -0.789371 0
M  V30 10171 H 973.184 -3.98713 -0.427699 0
M  V30 10172 H 969.774 -4.16905 0.994374 0
M  V30 10173 H 973.958 -4.59383 1.87833 0
M  V30 10174 H 969.214 -5.253 3.12841 0
M  V30 10175 H 973.388 -5.69147 4.01304 0
M  V30 10176 H 971.015 -6.01883 4.64371 0
M  V30 10177 O 972.629 -0.475622 -1.54338 0
M  V30 10178 H 973.32 0.048546 -1.93639 0
M  V30 END ATOM
M  V30 BEGIN BOND
M  V30 END BOND
M  V30 END CTAB
M  END
$$$$
