drugbank_target|P14756 Elastase (DB02307)
 OpenBabel12092119553D

  0  0  0     0  0            999 V3000
M  V30 BEGIN CTAB
M  V30 COUNTS 7438 7523 0 0 0
M  V30 BEGIN ATOM
M  V30 1 H -0.908 1.98254 -0.117106 0
M  V30 2 N 0 1.576 0 0
M  V30 3 C 0.933 2.03868 1.02534 0
M  V30 4 C 1.911 0.928543 1.3348 0
M  V30 5 O 3.095 1.19667 1.45644 0
M  V30 6 C 0.222 2.43627 2.35294 0
M  V30 7 C -0.732 3.65373 2.2001 0
M  V30 8 S 0.101 5.13292 1.52614 0
M  V30 9 C 1.257 5.56322 2.86805 0
M  V30 10 H 1.49 2.90518 0.631377 0
M  V30 11 H -0.977 1.52953 0.210867 0
M  V30 12 H 0.981 2.67203 3.11629 0
M  V30 13 H -0.358 1.57376 2.7183 0
M  V30 14 H -1.165 3.90944 3.18086 0
M  V30 15 H -1.563 3.418 1.51819 0
M  V30 16 H 0.729 5.58782 3.83104 0
M  V30 17 H 1.672 6.56266 2.65933 0
M  V30 18 H 2.08 4.83886 2.90714 0
M  V30 19 N 1.4781 -0.272755 1.55222 0
M  V30 20 C 2.4251 -1.33716 1.88119 0
M  V30 21 C 3.3951 -1.49066 0.73271 0
M  V30 22 O 4.5801 -1.63469 0.984002 0
M  V30 23 C 1.7201 -2.69238 2.15882 0
M  V30 24 C 0.8331 -2.62108 3.43399 0
M  V30 25 C -0.0319 -3.89811 3.60861 0
M  V30 26 C -0.9929 -3.77193 4.8207 0
M  V30 27 N -1.8559 -4.9673 4.96189 0
M  V30 28 H 2.9841 -1.04962 2.78903 0
M  V30 29 H 0.5211 -0.507088 1.38083 0
M  V30 30 H 2.4791 -3.48089 2.29978 0
M  V30 31 H 1.1091 -2.96194 1.28331 0
M  V30 32 H 0.1611 -1.74967 3.37773 0
M  V30 33 H 1.4731 -2.48685 4.32386 0
M  V30 34 H 0.6271 -4.77103 3.74777 0
M  V30 35 H -0.6339 -4.06102 2.7006 0
M  V30 36 H -1.6289 -2.88284 4.68159 0
M  V30 37 H -0.4039 -3.62421 5.74307 0
M  V30 38 H -2.4579 -5.13431 4.08319 0
M  V30 39 H -2.5409 -4.85839 5.79221 0
M  V30 40 H -1.2729 -5.85594 5.1449 0
M  V30 41 N 2.9562 -1.48159 -0.537278 0
M  V30 42 C 3.9032 -1.62138 -1.64256 0
M  V30 43 C 4.8732 -0.463668 -1.59497 0
M  V30 44 O 6.0582 -0.686241 -1.78032 0
M  V30 45 C 3.1982 -1.66028 -3.02537 0
M  V30 46 C 2.3112 -2.92855 -3.17585 0
M  V30 47 C 1.4462 -2.87952 -4.46382 0
M  V30 48 C 0.4852 -4.09516 -4.54932 0
M  V30 49 N -0.3778 -4.02733 -5.75109 0
M  V30 50 H 4.4622 -2.56529 -1.51647 0
M  V30 51 H 1.9992 -1.27224 -0.738414 0
M  V30 52 H 3.9572 -1.66265 -3.82638 0
M  V30 53 H 2.5872 -0.751331 -3.13934 0
M  V30 54 H 1.6392 -3.02395 -2.30784 0
M  V30 55 H 2.9512 -3.82822 -3.19764 0
M  V30 56 H 2.1052 -2.8655 -5.34765 0
M  V30 57 H 0.8442 -1.95702 -4.46712 0
M  V30 58 H -0.1508 -4.11201 -3.64957 0
M  V30 59 H 1.0742 -5.02917 -4.56346 0
M  V30 60 H -0.9798 -3.13299 -5.76351 0
M  V30 61 H -1.0628 -4.86397 -5.78752 0
M  V30 62 H 0.2052 -4.05379 -6.65799 0
M  V30 63 N 4.4343 0.785586 -1.36625 0
M  V30 64 C 5.6803 1.54591 -1.31261 0
M  V30 65 C 6.0133 1.93906 0.106823 0
M  V30 66 O 5.2883 1.63007 1.06108 0
M  V30 67 C 5.5713 2.82038 -2.23889 0
M  V30 68 C 5.4243 2.49066 -3.74548 0
M  V30 69 C 6.7433 3.83887 -2.15217 0
M  V30 70 H 3.8623 0.560846 -0.478143 0
M  V30 71 H 6.5043 0.902278 -1.67209 0
M  V30 72 H 4.6543 3.36961 -1.93363 0
M  V30 73 H 6.3263 2.00164 -4.15611 0
M  V30 74 H 4.5693 1.81954 -3.93796 0
M  V30 75 H 5.2403 3.40109 -4.34776 0
M  V30 76 H 7.7163 3.38421 -2.42096 0
M  V30 77 H 6.5923 4.70806 -2.82193 0
M  V30 78 H 6.8533 4.27131 -1.14068 0
M  V30 79 N 5.9124 1.20967 1.01018 0
M  V30 80 C 7.1374 1.0503 1.78839 0
M  V30 81 C 7.5624 -0.395752 1.8389 0
M  V30 82 O 6.9204 -1.28529 1.27867 0
M  V30 83 C 6.9684 1.64602 3.2084 0
M  V30 84 O 6.0724 0.887988 4.02726 0
M  V30 85 H 5.4134 0.369987 0.551367 0
M  V30 86 H 7.9434 1.60399 1.27018 0
M  V30 87 H 7.9534 1.68607 3.71532 0
M  V30 88 H 6.6284 2.69841 3.16479 0
M  V30 89 H 5.2054 0.922648 3.61305 0
M  V30 90 N 7.3905 -1.2043 1.01659 0
M  V30 91 C 8.6185 -1.93777 0.725132 0
M  V30 92 C 9.0335 -1.74772 -0.714166 0
M  V30 93 O 8.3905 -1.06169 -1.4844 0
M  V30 94 C 8.4415 -3.45876 1.05129 0
M  V30 95 O 8.1625 -3.6426 2.43406 0
M  V30 96 C 9.6635 -4.36368 0.780891 0
M  V30 97 H 6.8835 -0.615901 0.266284 0
M  V30 98 H 9.4275 -1.52922 1.35776 0
M  V30 99 H 7.5825 -3.8461 0.464065 0
M  V30 100 H 7.9965 -4.58246 2.55169 0
M  V30 101 H 9.4705 -5.41743 1.05918 0
M  V30 102 H 9.9475 -4.38275 -0.284937 0
M  V30 103 H 10.5535 -4.03296 1.35027 0
M  V30 104 N 8.8686 -0.792821 -1.36206 0
M  V30 105 C 9.7986 -0.207853 -2.32573 0
M  V30 106 C 10.7796 0.659055 -1.56813 0
M  V30 107 O 11.9646 0.592176 -1.84951 0
M  V30 108 C 9.0946 0.655449 -3.41059 0
M  V30 109 C 8.0486 -0.111842 -4.27854 0
M  V30 110 C 7.3746 0.872274 -5.27537 0
M  V30 111 C 8.6746 -1.30299 -5.05786 0
M  V30 112 H 10.3686 -1.01294 -2.81744 0
M  V30 113 H 7.9146 -0.48854 -1.3546 0
M  V30 114 H 9.8676 1.07464 -4.07467 0
M  V30 115 H 8.5916 1.49328 -2.90463 0
M  V30 116 H 7.2506 -0.512053 -3.63006 0
M  V30 117 H 6.8986 1.70523 -4.73214 0
M  V30 118 H 6.5986 0.363291 -5.86476 0
M  V30 119 H 8.1226 1.28996 -5.96818 0
M  V30 120 H 9.5366 -0.959379 -5.65216 0
M  V30 121 H 7.9336 -1.7455 -5.74154 0
M  V30 122 H 9.0036 -2.09663 -4.37229 0
M  V30 123 N 10.3467 1.47872 -0.545128 0
M  V30 124 C 11.6237 1.9554 0.0485222 0
M  V30 125 C 12.0037 1.4876 1.49779 0
M  V30 126 O 11.3517 0.720925 2.16829 0
M  V30 127 C 11.5617 3.48898 -0.084417 0
M  V30 128 C 12.9097 4.24547 0.0671239 0
M  V30 129 O 13.9337 3.56198 -0.0113649 0
M  V30 130 O 12.7927 5.45999 0.233882 0
M  V30 131 H 9.8867 0.823957 0.0708773 0
M  V30 132 H 12.4327 1.58327 -0.610798 0
M  V30 133 H 11.2047 3.75714 -1.09337 0
M  V30 134 H 10.8277 3.92845 0.613066 0
M  V30 135 N 11.8248 0.280983 1.55075 0
M  V30 136 C 12.7548 -0.597469 2.25727 0
M  V30 137 C 13.7358 -1.15417 1.24952 0
M  V30 138 O 14.9208 -1.18722 1.53684 0
M  V30 139 C 12.0508 -1.7789 2.98283 0
M  V30 140 C 11.0048 -1.35347 4.06036 0
M  V30 141 C 10.3308 -2.61846 4.66198 0
M  V30 142 C 11.6308 -0.499354 5.19907 0
M  V30 143 H 13.3248 -0.00824265 2.99399 0
M  V30 144 H 10.8708 -0.0025244 1.44 0
M  V30 145 H 12.8238 -2.39937 3.46422 0
M  V30 146 H 11.5478 -2.39405 2.22155 0
M  V30 147 H 10.2068 -0.756156 3.58717 0
M  V30 148 H 9.8548 -3.21632 3.86732 0
M  V30 149 H 9.5548 -2.3409 5.38958 0
M  V30 150 H 11.0788 -3.24732 5.1709 0
M  V30 151 H 12.4928 -1.02498 5.64063 0
M  V30 152 H 10.8898 -0.316424 5.99265 0
M  V30 153 H 11.9598 0.480459 4.82514 0
M  V30 154 N 13.3029 -1.57598 0.00835791 0
M  V30 155 C 14.2329 -2.1198 -0.979113 0
M  V30 156 C 15.2139 -1.03091 -1.35301 0
M  V30 157 O 16.3989 -1.30818 -1.43528 0
M  V30 158 C 13.5289 -2.62995 -2.26828 0
M  V30 159 C 12.4829 -3.76485 -2.03576 0
M  V30 160 C 11.8089 -4.13846 -3.38579 0
M  V30 161 C 13.1089 -5.0342 -1.39161 0
M  V30 162 H 14.8029 -2.94738 -0.526281 0
M  V30 163 H 12.3489 -1.41783 -0.251704 0
M  V30 164 H 14.3019 -2.99669 -2.96271 0
M  V30 165 H 13.0259 -1.7737 -2.7424 0
M  V30 166 H 11.6849 -3.40217 -1.36557 0
M  V30 167 H 11.3329 -3.25232 -3.83709 0
M  V30 168 H 11.0329 -4.90312 -3.23834 0
M  V30 169 H 12.5569 -4.53086 -4.09323 0
M  V30 170 H 13.9709 -5.37812 -1.98573 0
M  V30 171 H 12.3679 -5.84746 -1.34878 0
M  V30 172 H 13.4379 -4.83548 -0.361868 0
M  V30 173 N 14.781 0.264519 -1.55364 0
M  V30 174 C 16.028 0.994986 -1.7637 0
M  V30 175 C 16.356 1.85976 -0.5695 0
M  V30 176 O 15.611 1.90509 0.44776 0
M  V30 177 C 15.91 1.9004 -3.02687 0
M  V30 178 C 15.576 1.19243 -4.34847 0
M  V30 179 C 14.238 0.996709 -4.70764 0
M  V30 180 C 16.59 0.689296 -5.16622 0
M  V30 181 C 13.918 0.285261 -5.86006 0
M  V30 182 C 16.27 -0.00860079 -6.32599 0
M  V30 183 C 14.934 -0.215963 -6.67151 0
M  V30 184 H 14.204 0.364091 -0.645383 0
M  V30 185 H 16.851 0.266543 -1.89636 0
M  V30 186 H 15.156 2.69533 -2.84357 0
M  V30 187 H 16.853 2.46695 -3.16137 0
M  V30 188 H 13.443 1.3549 -4.06621 0
M  V30 189 H 17.627 0.828108 -4.89342 0
M  V30 190 H 12.883 0.113961 -6.11294 0
M  V30 191 H 17.057 -0.406186 -6.95214 0
M  V30 192 H 14.684 -0.769217 -7.56298 0
M  V30 193 N 16.2591 1.48442 0.529413 0
M  V30 194 C 17.5051 1.5672 1.28711 0
M  V30 195 C 17.8381 0.2406 1.92704 0
M  V30 196 O 17.1131 -0.753454 1.79313 0
M  V30 197 C 17.3961 2.70587 2.37603 0
M  V30 198 C 17.2491 4.12953 1.78297 0
M  V30 199 C 18.5681 2.80212 3.39366 0
M  V30 200 H 15.6871 0.570474 0.466613 0
M  V30 201 H 18.3291 1.80617 0.589706 0
M  V30 202 H 16.4791 2.50342 2.97088 0
M  V30 203 H 18.1511 4.44639 1.22858 0
M  V30 204 H 16.3941 4.19927 1.0883 0
M  V30 205 H 17.0651 4.88448 2.57144 0
M  V30 206 H 19.5411 2.98553 2.89836 0
M  V30 207 H 18.4171 3.61611 4.12951 0
M  V30 208 H 18.6781 1.88393 3.99951 0
M  V30 209 N 17.7372 -0.778329 1.37039 0
M  V30 210 C 18.7002 -1.87301 1.32102 0
M  V30 211 C 19.7002 -1.59198 0.226405 0
M  V30 212 O 20.8902 -1.67403 0.481861 0
M  V30 213 C 18.0222 -3.24309 1.05055 0
M  V30 214 H 19.2152 -1.93093 2.29467 0
M  V30 215 H 16.7682 -0.977358 1.21973 0
M  V30 216 H 17.5032 -3.24196 0.0819373 0
M  V30 217 H 17.2882 -3.46098 1.84279 0
M  V30 218 H 18.7782 -4.04382 1.04234 0
M  V30 219 N 19.2153 -1.21501 -1.00376 0
M  V30 220 C 20.4643 -1.02718 -1.73586 0
M  V30 221 C 20.7773 0.439589 -1.90596 0
M  V30 222 O 21.9833 0.746848 -2.61026 0
M  V30 223 C 20.4393 -1.78929 -3.1227 0
M  V30 224 C 20.0473 -3.29783 -3.03228 0
M  V30 225 C 21.7913 -1.68557 -3.89601 0
M  V30 226 C 19.6983 -3.98479 -4.36999 0
M  V30 227 H 18.6283 -0.380733 -0.650814 0
M  V30 228 H 21.2793 -1.45248 -1.1214 0
M  V30 229 H 19.6613 -1.29192 -3.74333 0
M  V30 230 H 20.8353 -3.86832 -2.50395 0
M  V30 231 H 19.1503 -3.40711 -2.39385 0
M  V30 232 H 21.7473 -2.17211 -4.88593 0
M  V30 233 H 22.0903 -0.644021 -4.11288 0
M  V30 234 H 22.6233 -2.15778 -3.34193 0
M  V30 235 H 19.3623 -5.02841 -4.20513 0
M  V30 236 H 18.8823 -3.46219 -4.89788 0
M  V30 237 H 20.5613 -4.03462 -5.05794 0
M  V30 238 N 20.6934 1.19889 -1.02296 0
M  V30 239 C 21.6264 2.21639 -0.543282 0
M  V30 240 C 22.6044 1.57275 0.412698 0
M  V30 241 O 23.7884 1.85568 0.331198 0
M  V30 242 C 20.9154 3.38057 0.208571 0
M  V30 243 C 19.9614 4.20751 -0.697933 0
M  V30 244 S 20.7944 4.89529 -2.17075 0
M  V30 245 C 21.9504 6.09363 -1.42923 0
M  V30 246 H 22.1834 2.61984 -1.40541 0
M  V30 247 H 19.7164 1.30041 -0.832387 0
M  V30 248 H 21.6744 4.05539 0.63624 0
M  V30 249 H 20.3354 2.96159 1.04635 0
M  V30 250 H 19.5284 5.03862 -0.117831 0
M  V30 251 H 19.1304 3.58556 -1.06366 0
M  V30 252 H 21.4224 6.73742 -0.712637 0
M  V30 253 H 22.3654 6.71845 -2.23673 0
M  V30 254 H 22.7734 5.56798 -0.929327 0
M  V30 255 N 22.1715 0.800033 1.35784 0
M  V30 256 C 23.4195 0.376597 1.9856 0
M  V30 257 C 23.7405 -1.05812 1.63795 0
M  V30 258 O 23.0105 -1.73103 0.917171 0
M  V30 259 H 21.5905 0.136261 0.734467 0
M  V30 260 H 24.2525 1.02442 1.65806 0
M  V30 261 H 23.3485 0.477002 3.08433 0
M  V30 262 N 23.6496 -1.47581 0.552962 0
M  V30 263 C 24.8956 -2.02782 0.0273648 0
M  V30 264 C 25.2286 -1.42687 -1.31734 0
M  V30 265 O 24.5036 -0.580897 -1.85623 0
M  V30 266 C 24.7866 -3.60031 -0.0702371 0
M  V30 267 C 24.6396 -4.30566 1.30126 0
M  V30 268 C 25.9586 -4.33028 -0.785771 0
M  V30 269 H 23.0776 -0.736912 0.0114185 0
M  V30 270 H 25.7196 -1.76056 0.714432 0
M  V30 271 H 23.8696 -3.82932 -0.655382 0
M  V30 272 H 25.5416 -4.19018 1.92929 0
M  V30 273 H 23.7846 -3.91086 1.87709 0
M  V30 274 H 24.4556 -5.39114 1.18573 0
M  V30 275 H 26.9316 -4.15095 -0.288982 0
M  V30 276 H 25.8076 -5.42695 -0.823013 0
M  V30 277 H 26.0686 -4.01945 -1.841 0
M  V30 278 N 25.1277 -0.289203 -1.54924 0
M  V30 279 C 26.3527 0.329299 -2.04769 0
M  V30 280 C 26.7777 1.4763 -1.16564 0
M  V30 281 O 26.1357 1.80527 -0.167186 0
M  V30 282 C 26.1837 0.774438 -3.52186 0
M  V30 283 O 25.2877 1.88038 -3.67036 0
M  V30 284 H 24.6287 0.0659259 -0.660719 0
M  V30 285 H 27.1587 -0.42761 -2.00082 0
M  V30 286 H 27.1687 1.06642 -3.93816 0
M  V30 287 H 25.8437 -0.0646707 -4.1585 0
M  V30 288 H 24.4207 1.58985 -3.3731 0
M  V30 289 N 26.6058 1.57591 -0.0167156 0
M  V30 290 C 28.0168 1.79201 0.523834 0
M  V30 291 C 28.3678 0.925796 1.72984 0
M  V30 292 O 27.4928 0.132792 2.15992 0
M  V30 293 C 28.0878 3.25 0.957091 0
M  V30 294 C 26.6468 3.47648 1.44283 0
M  V30 295 C 25.7938 2.74374 0.401757 0
M  V30 296 H 28.7448 1.56831 -0.242816 0
M  V30 297 H 28.7658 3.34031 1.82219 0
M  V30 298 H 28.2778 3.88019 0.0791415 0
M  V30 299 H 26.3788 2.89866 2.34113 0
M  V30 300 H 26.4918 4.56352 1.45877 0
M  V30 301 H 24.8558 2.39485 0.867121 0
M  V30 302 H 25.6388 3.40102 -0.467513 0
M  V30 303 N 28.0839 -0.256276 1.55502 0
M  V30 304 C 29.0469 -1.30047 1.88734 0
M  V30 305 C 30.0469 -1.4154 0.763086 0
M  V30 306 O 31.2369 -1.40403 1.03115 0
M  V30 307 C 28.3689 -2.67953 2.10747 0
M  V30 308 H 29.5619 -1.01802 2.82093 0
M  V30 309 H 27.1149 -0.495134 1.4825 0
M  V30 310 H 27.8499 -3.01351 1.19825 0
M  V30 311 H 27.6349 -2.60993 2.92617 0
M  V30 312 H 29.1249 -3.43368 2.37673 0
M  V30 313 N 29.562 -1.4872 -0.521534 0
M  V30 314 C 30.525 -1.63379 -1.60748 0
M  V30 315 C 31.525 -0.50661 -1.52611 0
M  V30 316 O 32.715 -0.772601 -1.5613 0
M  V30 317 C 29.847 -1.61192 -3.00383 0
M  V30 318 H 31.04 -2.60217 -1.49087 0
M  V30 319 H 28.593 -1.37444 -0.744235 0
M  V30 320 H 29.328 -0.65863 -3.17541 0
M  V30 321 H 29.113 -2.43032 -3.07698 0
M  V30 322 H 30.603 -1.7466 -3.7932 0
M  V30 323 N 31.0401 0.771051 -1.3745 0
M  V30 324 C 32.2871 1.52963 -1.32697 0
M  V30 325 C 32.6151 1.94299 0.0883274 0
M  V30 326 O 31.8701 1.64397 1.0617 0
M  V30 327 C 32.1691 2.80676 -2.2126 0
M  V30 328 C 31.8351 2.58389 -3.69521 0
M  V30 329 C 30.4971 2.52019 -4.09927 0
M  V30 330 C 32.8491 2.38469 -4.63446 0
M  V30 331 C 30.1771 2.23721 -5.42371 0
M  V30 332 C 32.5291 2.11694 -5.96128 0
M  V30 333 C 31.1931 2.03769 -6.35637 0
M  V30 334 H 30.4631 0.559732 -0.485573 0
M  V30 335 H 33.1101 0.888083 -1.69662 0
M  V30 336 H 31.4151 3.49392 -1.77291 0
M  V30 337 H 33.1121 3.38557 -2.14895 0
M  V30 338 H 29.7021 2.6421 -3.37478 0
M  V30 339 H 33.8861 2.4238 -4.33089 0
M  V30 340 H 29.1421 2.16081 -5.71943 0
M  V30 341 H 33.3161 1.9528 -6.6846 0
M  V30 342 H 30.9431 1.81606 -7.38189 0
M  V30 343 N 32.5182 1.22032 0.997298 0
M  V30 344 C 33.4812 0.987909 2.06816 0
M  V30 345 C 34.4812 -0.0440084 1.6074 0
M  V30 346 O 35.6712 0.194053 1.73116 0
M  V30 347 C 32.8032 0.49132 3.37341 0
M  V30 348 H 33.9962 1.93803 2.28868 0
M  V30 349 H 31.5492 1.03838 1.16822 0
M  V30 350 H 32.2842 -0.463364 3.20973 0
M  V30 351 H 32.0692 1.23575 3.72118 0
M  V30 352 H 33.5592 0.348824 4.16141 0
M  V30 353 N 33.9963 -1.19345 1.0293 0
M  V30 354 C 34.9593 -2.20793 0.615069 0
M  V30 355 C 35.9593 -1.57553 -0.321533 0
M  V30 356 O 37.1493 -1.73862 -0.108483 0
M  V30 357 C 34.2813 -3.40754 -0.0999222 0
M  V30 358 H 35.4743 -2.58955 1.51269 0
M  V30 359 H 33.0273 -1.3303 0.820534 0
M  V30 360 H 33.7623 -3.0811 -1.01187 0
M  V30 361 H 33.5473 -3.87889 0.57309 0
M  V30 362 H 35.0373 -4.15898 -0.376645 0
M  V30 363 N 35.4744 -0.807222 -1.35358 0
M  V30 364 C 36.7514 -0.311126 -1.9311 0
M  V30 365 C 37.1314 1.19937 -1.73719 0
M  V30 366 O 36.4794 1.99918 -1.10657 0
M  V30 367 C 36.6894 -0.723226 -3.41424 0
M  V30 368 C 38.0374 -0.713078 -4.18569 0
M  V30 369 O 39.0614 -0.664811 -3.49941 0
M  V30 370 O 37.9204 -0.772022 -5.41019 0
M  V30 371 H 35.0144 -0.081526 -0.822972 0
M  V30 372 H 37.5604 -0.890962 -1.4443 0
M  V30 373 H 36.3324 -1.76426 -3.4927 0
M  V30 374 H 35.9554 -0.118232 -3.97424 0
M  V30 375 N 36.9525 1.47285 -0.560781 0
M  V30 376 C 37.8825 2.32857 0.173105 0
M  V30 377 C 38.8635 1.44009 0.905281 0
M  V30 378 O 40.0485 1.7286 0.885046 0
M  V30 379 C 37.1785 3.25861 1.20133 0
M  V30 380 C 36.1325 4.23978 0.585388 0
M  V30 381 C 35.4585 5.06332 1.7185 0
M  V30 382 C 36.7585 5.20242 -0.463178 0
M  V30 383 H 38.4525 2.94466 -0.541307 0
M  V30 384 H 35.9985 1.41601 -0.261764 0
M  V30 385 H 37.9515 3.84569 1.72293 0
M  V30 386 H 36.6755 2.62315 1.94573 0
M  V30 387 H 35.3345 3.66501 0.085054 0
M  V30 388 H 34.9825 4.39186 2.45203 0
M  V30 389 H 34.6825 5.72762 1.31213 0
M  V30 390 H 36.2065 5.67899 2.24329 0
M  V30 391 H 37.6205 5.73293 -0.027502 0
M  V30 392 H 36.0175 5.94896 -0.788627 0
M  V30 393 H 37.0875 4.65504 -1.35773 0
M  V30 394 N 38.4306 0.297415 1.54768 0
M  V30 395 C 39.6796 -0.313669 1.99246 0
M  V30 396 C 39.9926 -1.55281 1.18942 0
M  V30 397 O 41.1986 -2.23825 1.5367 0
M  V30 398 C 39.6546 -0.609407 3.54703 0
M  V30 399 C 39.2626 0.611192 4.43811 0
M  V30 400 C 41.0066 -1.18188 4.07715 0
M  V30 401 C 38.9136 0.288805 5.90694 0
M  V30 402 H 37.8436 -0.120979 0.744231 0
M  V30 403 H 40.4946 0.40556 1.78962 0
M  V30 404 H 38.8766 -1.38813 3.70873 0
M  V30 405 H 40.0506 1.3875 4.39414 0
M  V30 406 H 38.3656 1.10205 4.01552 0
M  V30 407 H 40.9626 -1.43727 5.15021 0
M  V30 408 H 41.3056 -2.12299 3.58099 0
M  V30 409 H 41.8386 -0.464944 3.95074 0
M  V30 410 H 38.5776 1.19838 6.44453 0
M  V30 411 H 38.0976 -0.450305 5.98107 0
M  V30 412 H 39.7766 -0.110933 6.46905 0
M  V30 413 N 39.9087 -1.5758 0.0250728 0
M  V30 414 C 41.1857 -1.82917 -0.692873 0
M  V30 415 C 41.5657 -0.908137 -1.90568 0
M  V30 416 O 40.9137 0.0372298 -2.2847 0
M  V30 417 C 41.1237 -3.32034 -1.07492 0
M  V30 418 C 42.4717 -3.98406 -1.46826 0
M  V30 419 O 43.4957 -3.36505 -1.16801 0
M  V30 420 O 42.3547 -5.07497 -2.02754 0
M  V30 421 H 39.4487 -0.754079 -0.33955 0
M  V30 422 H 41.9947 -1.69619 0.0524456 0
M  V30 423 H 40.7667 -3.90728 -0.211552 0
M  V30 424 H 40.3897 -3.50424 -1.87854 0
M  V30 425 N 41.3868 0.248026 -1.55636 0
M  V30 426 C 42.6328 0.97767 -1.77678 0
M  V30 427 C 42.9658 1.85016 -0.590135 0
M  V30 428 O 42.2408 1.90095 0.411611 0
M  V30 429 C 42.5238 1.83914 -3.09593 0
M  V30 430 C 42.3768 0.99491 -4.38659 0
M  V30 431 C 43.6958 2.82183 -3.37729 0
M  V30 432 H 40.8148 0.354005 -0.646413 0
M  V30 433 H 43.4568 0.248253 -1.88371 0
M  V30 434 H 41.6068 2.46104 -3.00608 0
M  V30 435 H 43.2788 0.391789 -4.59633 0
M  V30 436 H 41.5218 0.299231 -4.32767 0
M  V30 437 H 42.1928 1.63145 -5.2734 0
M  V30 438 H 44.6688 2.30129 -3.4667 0
M  V30 439 H 43.5448 3.39582 -4.31249 0
M  V30 440 H 43.8058 3.58588 -2.58586 0
M  V30 441 N 42.8649 1.48995 0.513639 0
M  V30 442 C 44.0899 1.61792 1.29762 0
M  V30 443 C 44.5149 0.284475 1.85936 0
M  V30 444 O 43.8729 -0.746185 1.65232 0
M  V30 445 C 43.9209 2.67993 2.41272 0
M  V30 446 O 43.0249 2.26287 3.44772 0
M  V30 447 H 42.3659 0.541963 0.38363 0
M  V30 448 H 44.8959 1.95097 0.616307 0
M  V30 449 H 44.9059 2.89772 2.87221 0
M  V30 450 H 43.5809 3.64791 1.9975 0
M  V30 451 H 42.1579 2.14788 3.04829 0
M  V30 452 N 44.343 -0.763751 1.37857 0
M  V30 453 C 45.29 -1.87726 1.34267 0
M  V30 454 C 46.26 -1.64807 0.206879 0
M  V30 455 O 47.445 -1.86613 0.397508 0
M  V30 456 C 44.585 -3.24896 1.16346 0
M  V30 457 C 43.698 -3.59716 2.39225 0
M  V30 458 C 42.833 -4.86137 2.14114 0
M  V30 459 C 41.872 -5.13711 3.32817 0
M  V30 460 N 41.009 -6.31323 3.07206 0
M  V30 461 H 45.849 -1.90129 2.29466 0
M  V30 462 H 43.386 -0.929433 1.14017 0
M  V30 463 H 45.344 -4.04036 1.03975 0
M  V30 464 H 43.974 -3.21847 0.247909 0
M  V30 465 H 43.026 -2.75498 2.62307 0
M  V30 466 H 44.338 -3.76027 3.27728 0
M  V30 467 H 43.492 -5.73198 1.9882 0
M  V30 468 H 42.231 -4.71945 1.22961 0
M  V30 469 H 41.236 -4.25123 3.48641 0
M  V30 470 H 42.461 -5.29807 4.24832 0
M  V30 471 H 40.407 -6.18474 2.1869 0
M  V30 472 H 40.324 -6.48087 3.89254 0
M  V30 473 H 41.592 -7.213 2.95546 0
M  V30 474 N 45.8211 -1.22559 -0.990812 0
M  V30 475 C 46.7511 -1.0218 -2.09956 0
M  V30 476 C 47.7321 0.0579394 -1.70001 0
M  V30 477 O 48.9171 -0.104684 -1.93918 0
M  V30 478 C 46.0471 -0.601023 -3.4206 0
M  V30 479 C 45.0011 -1.62694 -3.95872 0
M  V30 480 C 44.3271 -1.06193 -5.24049 0
M  V30 481 C 45.6271 -3.01743 -4.2632 0
M  V30 482 H 47.3211 -1.94916 -2.27262 0
M  V30 483 H 44.8671 -0.938566 -1.09211 0
M  V30 484 H 46.8201 -0.445561 -4.19038 0
M  V30 485 H 45.5441 0.362005 -3.24588 0
M  V30 486 H 44.2031 -1.77021 -3.21028 0
M  V30 487 H 43.8511 -0.0901903 -5.02919 0
M  V30 488 H 43.5511 -1.74732 -5.61019 0
M  V30 489 H 45.0751 -0.918092 -6.03658 0
M  V30 490 H 46.4891 -2.90777 -4.94087 0
M  V30 491 H 44.8861 -3.67425 -4.74467 0
M  V30 492 H 45.9561 -3.51518 -3.34011 0
M  V30 493 N 47.2992 1.18797 -1.03562 0
M  V30 494 C 48.7102 1.70322 -0.764676 0
M  V30 495 C 49.0612 1.82708 0.714996 0
M  V30 496 O 48.1862 1.50299 1.55689 0
M  V30 497 C 48.7812 3.09356 -1.38145 0
M  V30 498 C 47.3402 3.58114 -1.15895 0
M  V30 499 C 46.4872 2.34798 -1.4753 0
M  V30 500 H 49.4382 1.03543 -1.20268 0
M  V30 501 H 49.4592 3.72378 -0.781977 0
M  V30 502 H 48.9712 3.00309 -2.45837 0
M  V30 503 H 47.0722 3.72464 -0.100544 0
M  V30 504 H 47.1852 4.4184 -1.8524 0
M  V30 505 H 45.5492 2.38464 -0.894829 0
M  V30 506 H 46.3322 2.28375 -2.56319 0
M  V30 507 N 48.7773 0.814389 1.34928 0
M  V30 508 C 50.0023 0.410097 2.03305 0
M  V30 509 C 50.4273 -0.973464 1.60951 0
M  V30 510 O 49.7853 -1.63185 0.789964 0
M  V30 511 C 49.8333 0.51049 3.56968 0
M  V30 512 O 48.9373 -0.473035 4.09678 0
M  V30 513 H 48.2783 0.170088 0.641846 0
M  V30 514 H 50.8083 1.10244 1.72358 0
M  V30 515 H 50.8183 0.383135 4.06197 0
M  V30 516 H 49.4933 1.51963 3.87144 0
M  V30 517 H 48.0703 -0.305272 3.71648 0
M  V30 518 N 50.2554 -1.46986 0.568584 0
M  V30 519 C 51.2024 -2.30153 -0.172707 0
M  V30 520 C 52.1724 -1.39759 -0.897586 0
M  V30 521 O 53.3574 -1.68716 -0.891044 0
M  V30 522 C 50.4974 -3.23952 -1.1895 0
M  V30 523 C 49.6104 -4.29441 -0.469517 0
M  V30 524 C 48.7454 -5.1038 -1.47259 0
M  V30 525 C 47.7844 -6.07632 -0.738225 0
M  V30 526 N 46.9214 -6.8149 -1.68868 0
M  V30 527 H 51.7614 -2.93019 0.542596 0
M  V30 528 H 49.2984 -1.44422 0.279401 0
M  V30 529 H 51.2564 -3.76767 -1.79173 0
M  V30 530 H 49.8864 -2.62926 -1.87269 0
M  V30 531 H 48.9384 -3.79594 0.247467 0
M  V30 532 H 50.2504 -4.98689 0.105241 0
M  V30 533 H 49.4044 -5.67402 -2.14803 0
M  V30 534 H 48.1434 -4.4106 -2.08128 0
M  V30 535 H 47.1484 -5.49778 -0.0489293 0
M  V30 536 H 48.3734 -6.78966 -0.135129 0
M  V30 537 H 46.3194 -6.14891 -2.28573 0
M  V30 538 H 46.2364 -7.46948 -1.16636 0
M  V30 539 H 47.5044 -7.43078 -2.3549 0
M  V30 540 N 51.7335 -0.305618 -1.54608 0
M  V30 541 C 52.6965 0.555591 -2.22364 0
M  V30 542 C 53.6965 1.05768 -1.21119 0
M  V30 543 O 54.8865 0.952972 -1.45822 0
M  V30 544 C 52.0185 1.76974 -2.91364 0
M  V30 545 H 53.2115 -0.0364572 -2.99878 0
M  V30 546 H 50.7645 -0.0565007 -1.56198 0
M  V30 547 H 51.4995 2.40151 -2.17941 0
M  V30 548 H 51.2845 1.41732 -3.65588 0
M  V30 549 H 52.7745 2.38148 -3.43038 0
M  V30 550 N 53.2116 1.57565 -0.0334293 0
M  V30 551 C 54.1746 2.09393 0.932048 0
M  V30 552 C 55.1746 1.00986 1.25134 0
M  V30 553 O 56.3646 1.27129 1.19096 0
M  V30 554 C 53.4966 2.56338 2.2473 0
M  V30 555 H 54.6896 2.95984 0.483085 0
M  V30 556 H 52.2426 1.54819 0.21468 0
M  V30 557 H 52.9776 1.7309 2.74245 0
M  V30 558 H 52.7626 3.35542 2.02865 0
M  V30 559 H 54.2526 2.96646 2.93923 0
M  V30 560 N 54.6897 -0.239769 1.55765 0
M  V30 561 C 55.6217 -1.32001 1.87372 0
M  V30 562 C 56.6347 -1.43944 0.760522 0
M  V30 563 O 57.8237 -1.45167 1.0387 0
M  V30 564 C 54.9237 -2.69779 2.05115 0
M  V30 565 C 54.0967 -2.80014 3.36022 0
M  V30 566 C 53.1557 -3.98684 3.4342 0
M  V30 567 O 52.1817 -3.87877 4.16582 0
M  V30 568 N 53.3837 -5.12176 2.73232 0
M  V30 569 H 56.1487 -1.0522 2.80622 0
M  V30 570 H 53.7097 -0.429857 1.56089 0
M  V30 571 H 55.7017 -3.47517 2.07399 0
M  V30 572 H 54.2717 -2.89237 1.18577 0
M  V30 573 H 53.4917 -1.88896 3.45994 0
M  V30 574 H 54.7797 -2.83808 4.22292 0
M  V30 575 H 54.1777 -5.2385 2.13536 0
M  V30 576 H 52.7347 -5.88022 2.81199 0
M  V30 577 N 56.1678 -1.49265 -0.50573 0
M  V30 578 C 57.4158 -1.582 -1.25766 0
M  V30 579 C 57.7368 -0.268482 -1.93143 0
M  V30 580 O 57.0068 0.711833 -1.8251 0
M  V30 581 H 55.5868 -0.582873 -0.467191 0
M  V30 582 H 58.2488 -1.85865 -0.586525 0
M  V30 583 H 57.3448 -2.37563 -2.02412 0
M  V30 584 N 57.6459 0.756429 -1.3826 0
M  V30 585 C 58.6089 1.85176 -1.35065 0
M  V30 586 C 59.6089 1.58818 -0.251703 0
M  V30 587 O 60.7989 1.66615 -0.508433 0
M  V30 588 C 57.9309 3.22596 -1.10201 0
M  V30 589 H 59.1239 1.89417 -2.3251 0
M  V30 590 H 56.6769 0.95783 -1.23512 0
M  V30 591 H 57.4119 3.24025 -0.133504 0
M  V30 592 H 57.1969 3.43122 -1.89762 0
M  V30 593 H 58.6869 4.02673 -1.10654 0
M  V30 594 N 59.124 1.23083 0.984299 0
M  V30 595 C 60.535 1.05609 1.5396 0
M  V30 596 C 60.886 -0.377793 1.92528 0
M  V30 597 O 60.011 -1.26398 1.75649 0
M  V30 598 C 60.606 1.91087 2.7977 0
M  V30 599 C 59.165 1.77885 3.31713 0
M  V30 600 C 58.312 1.87028 2.04733 0
M  V30 601 H 61.263 1.36802 0.804419 0
M  V30 602 H 61.284 1.43336 3.5247 0
M  V30 603 H 60.796 2.9544 2.51668 0
M  V30 604 H 58.897 0.762995 3.64704 0
M  V30 605 H 59.01 2.61047 4.01735 0
M  V30 606 H 57.374 1.30565 2.18689 0
M  V30 607 H 58.157 2.92929 1.79017 0
M  V30 608 N 60.6021 -1.18246 1.0419 0
M  V30 609 C 61.8501 -1.87886 0.744543 0
M  V30 610 C 62.1711 -1.8082 -0.730006 0
M  V30 611 O 61.4411 -1.22736 -1.52685 0
M  V30 612 H 60.0211 -0.695556 0.272417 0
M  V30 613 H 62.6831 -1.43494 1.31892 0
M  V30 614 H 61.7791 -2.9389 1.05049 0
M  V30 615 N 62.0802 -0.821533 -1.34494 0
M  V30 616 C 63.4912 -0.467956 -1.8074 0
M  V30 617 C 63.8422 1.01151 -1.68116 0
M  V30 618 O 62.9672 1.78707 -1.22036 0
M  V30 619 C 63.5622 -0.842627 -3.28154 0
M  V30 620 C 62.1212 -0.541439 -3.72485 0
M  V30 621 C 61.2682 -1.06028 -2.56229 0
M  V30 622 H 64.2192 -1.01183 -1.22261 0
M  V30 623 H 64.2402 -0.145876 -3.8022 0
M  V30 624 H 63.7522 -1.91945 -3.37311 0
M  V30 625 H 61.8532 0.526034 -3.68868 0
M  V30 626 H 61.9662 -1.08453 -4.66663 0
M  V30 627 H 60.3302 -0.481892 -2.501 0
M  V30 628 H 61.1132 -2.14352 -2.68157 0
M  V30 629 N 63.5583 1.46682 -0.576371 0
M  V30 630 C 64.8043 2.02712 -0.0596221 0
M  V30 631 C 65.1373 1.44765 1.29448 0
M  V30 632 O 64.4123 0.610355 1.84675 0
M  V30 633 C 64.6953 3.60098 0.0129503 0
M  V30 634 C 64.5483 4.28441 -1.3696 0
M  V30 635 C 65.8673 4.34224 0.71678 0
M  V30 636 H 62.9863 0.736637 -0.0231407 0
M  V30 637 H 65.6283 1.74898 -0.742351 0
M  V30 638 H 63.7783 3.83926 0.594378 0
M  V30 639 H 65.4503 4.15896 -1.9957 0
M  V30 640 H 63.6933 3.8805 -1.93907 0
M  V30 641 H 64.3643 5.3716 -1.27135 0
M  V30 642 H 66.8403 4.15503 0.222908 0
M  V30 643 H 65.7163 5.43936 0.73657 0
M  V30 644 H 65.9773 4.04823 1.77682 0
M  V30 645 N 65.0364 0.313813 1.54444 0
M  V30 646 C 66.2644 -0.293918 2.04802 0
M  V30 647 C 66.6794 -1.46537 1.19047 0
M  V30 648 O 66.0364 -1.81182 0.218939 0
M  V30 649 C 66.0874 -0.737806 3.53891 0
M  V30 650 O 65.8084 0.387038 4.36387 0
M  V30 651 C 67.3094 -1.40936 4.203 0
M  V30 652 H 64.5294 -0.0620057 0.668129 0
M  V30 653 H 67.0734 0.457169 1.99324 0
M  V30 654 H 65.2284 -1.43889 3.59687 0
M  V30 655 H 65.6424 0.0391274 5.24485 0
M  V30 656 H 67.1164 -1.67099 5.26101 0
M  V30 657 H 67.5934 -2.35355 3.70816 0
M  V30 658 H 68.1994 -0.751117 4.18615 0
M  V30 659 N 66.5145 -1.57545 0.0417849 0
M  V30 660 C 67.4445 -2.14009 -0.933929 0
M  V30 661 C 68.4255 -1.05938 -1.33083 0
M  V30 662 O 69.6105 -1.33833 -1.40721 0
M  V30 663 C 66.7405 -2.67747 -2.21199 0
M  V30 664 C 65.6945 -3.80718 -1.95544 0
M  V30 665 C 65.0205 -4.20935 -3.29724 0
M  V30 666 C 66.3205 -5.06258 -1.28452 0
M  V30 667 H 68.0145 -2.95788 -0.463645 0
M  V30 668 H 65.5605 -1.42285 -0.221573 0
M  V30 669 H 67.5135 -3.05886 -2.89848 0
M  V30 670 H 66.2375 -1.83147 -2.70416 0
M  V30 671 H 64.8965 -3.43037 -1.2931 0
M  V30 672 H 64.5445 -3.33298 -3.76724 0
M  V30 673 H 64.2445 -4.9707 -3.13361 0
M  V30 674 H 65.7685 -4.61666 -3.9962 0
M  V30 675 H 67.1825 -5.41903 -1.8712 0
M  V30 676 H 65.5795 -5.87475 -1.22445 0
M  V30 677 H 66.6495 -4.84207 -0.259219 0
M  V30 678 N 67.9926 0.231505 -1.5589 0
M  V30 679 C 68.9246 1.31006 -1.8807 0
M  V30 680 C 69.9376 1.43539 -0.768145 0
M  V30 681 O 71.1266 1.44614 -1.04638 0
M  V30 682 C 68.2266 2.68688 -2.06543 0
M  V30 683 C 67.3996 2.78228 -3.37502 0
M  V30 684 C 66.4586 3.96857 -3.4553 0
M  V30 685 O 65.4846 3.85662 -4.18633 0
M  V30 686 N 66.6866 5.1072 -2.75944 0
M  V30 687 H 69.4516 1.03731 -2.81176 0
M  V30 688 H 67.0126 0.421573 -1.56315 0
M  V30 689 H 69.0046 3.46412 -2.09239 0
M  V30 690 H 67.5746 2.88605 -1.20109 0
M  V30 691 H 66.7946 1.87059 -3.46991 0
M  V30 692 H 68.0826 2.81564 -4.23791 0
M  V30 693 H 67.4806 5.2271 -2.16311 0
M  V30 694 H 66.0376 5.86523 -2.84314 0
M  V30 695 N 69.4707 1.49531 0.497807 0
M  V30 696 C 70.4337 1.65916 1.58128 0
M  V30 697 C 71.4337 0.530825 1.51786 0
M  V30 698 O 72.6237 0.797342 1.54881 0
M  V30 699 C 69.7557 1.65951 2.9778 0
M  V30 700 H 70.9487 2.62556 1.44929 0
M  V30 701 H 68.5017 1.38611 0.722275 0
M  V30 702 H 69.2367 0.709065 3.16453 0
M  V30 703 H 69.0217 2.47897 3.03792 0
M  V30 704 H 70.5117 1.80673 3.76493 0
M  V30 705 N 70.9488 -0.749086 1.3866 0
M  V30 706 C 71.9118 -1.84457 1.36045 0
M  V30 707 C 72.9118 -1.58682 0.260122 0
M  V30 708 O 74.1018 -1.66343 0.517261 0
M  V30 709 C 71.2338 -3.22008 1.11911 0
M  V30 710 H 72.4268 -1.88182 2.33512 0
M  V30 711 H 69.9798 -0.951266 1.24019 0
M  V30 712 H 70.7148 -3.2395 0.150686 0
M  V30 713 H 70.4998 -3.42111 1.91579 0
M  V30 714 H 71.9898 -4.0208 1.12788 0
M  V30 715 N 72.4269 -1.23603 -0.977757 0
M  V30 716 C 73.6729 -1.07129 -1.72195 0
M  V30 717 C 74.0059 0.390501 -1.90233 0
M  V30 718 O 73.2809 1.28902 -1.45653 0
M  V30 719 C 73.5639 -1.80031 -3.11867 0
M  V30 720 C 73.4169 -3.33899 -3.01383 0
M  V30 721 C 74.7359 -1.56492 -4.11337 0
M  V30 722 H 71.8549 -0.390571 -0.624999 0
M  V30 723 H 74.4969 -1.52142 -1.13811 0
M  V30 724 H 72.6469 -1.41768 -3.6171 0
M  V30 725 H 74.3189 -3.81699 -2.59043 0
M  V30 726 H 72.5619 -3.62796 -2.37827 0
M  V30 727 H 73.2329 -3.801 -4.00285 0
M  V30 728 H 75.7089 -1.89757 -3.70313 0
M  V30 729 H 74.5849 -2.09973 -5.07151 0
M  V30 730 H 74.8459 -0.500874 -4.39254 0
M  V30 731 N 73.905 1.17692 -1.04816 0
M  V30 732 C 75.153 1.87488 -0.754497 0
M  V30 733 C 75.474 1.81205 0.720407 0
M  V30 734 O 74.744 1.23544 1.52032 0
M  V30 735 H 73.324 0.694101 -0.276102 0
M  V30 736 H 75.986 1.42793 -1.32651 0
M  V30 737 H 75.082 2.93328 -1.06606 0
M  V30 738 N 75.3831 0.828654 1.34056 0
M  V30 739 C 76.3461 0.259927 2.27721 0
M  V30 740 C 77.3461 -0.565478 1.50529 0
M  V30 741 O 78.5361 -0.38075 1.69988 0
M  V30 742 C 75.6681 -0.634944 3.34935 0
M  V30 743 H 76.8611 1.0863 2.79534 0
M  V30 744 H 74.4141 0.600951 1.44285 0
M  V30 745 H 75.1491 -1.48416 2.88346 0
M  V30 746 H 74.9341 -0.0444999 3.92075 0
M  V30 747 H 76.4241 -1.02648 4.04788 0
M  V30 748 N 76.8612 -1.46375 0.584142 0
M  V30 749 C 78.1092 -2.01978 0.0701287 0
M  V30 750 C 78.4302 -1.4579 -1.295 0
M  V30 751 O 77.7002 -0.64314 -1.85042 0
M  V30 752 H 76.2802 -0.746648 0.0229345 0
M  V30 753 H 78.9422 -1.79461 0.760245 0
M  V30 754 H 78.0382 -3.121 0.0022064 0
M  V30 755 N 78.3393 -0.321999 -1.54275 0
M  V30 756 C 79.5873 0.280489 -2.00144 0
M  V30 757 C 79.9083 1.52777 -1.21178 0
M  V30 758 O 79.1783 1.9338 -0.313187 0
M  V30 759 H 77.7583 0.106632 -0.73935 0
M  V30 760 H 80.4203 -0.438184 -1.8991 0
M  V30 761 H 79.5163 0.537972 -3.07428 0
M  V30 762 N 79.8174 1.5752 -0.0501392 0
M  V30 763 C 80.7804 2.1037 0.909786 0
M  V30 764 C 81.7804 1.02308 1.24056 0
M  V30 765 O 82.9704 1.28385 1.17741 0
M  V30 766 C 80.1024 2.58708 2.21998 0
M  V30 767 H 81.2954 2.96479 0.451665 0
M  V30 768 H 78.8484 1.55038 0.198248 0
M  V30 769 H 79.5834 1.75989 2.72394 0
M  V30 770 H 79.3684 3.37675 1.99295 0
M  V30 771 H 80.8584 2.99747 2.9076 0
M  V30 772 N 81.2955 -0.223234 1.56011 0
M  V30 773 C 82.5725 -0.972108 1.69733 0
M  V30 774 C 82.9525 -2.02485 0.59691 0
M  V30 775 O 82.3005 -2.25037 -0.396324 0
M  V30 776 C 82.5105 -1.58407 3.10979 0
M  V30 777 C 83.8585 -2.07696 3.70334 0
M  V30 778 O 84.8825 -1.68304 3.1393 0
M  V30 779 O 83.7415 -2.80096 4.69264 0
M  V30 780 H 80.8355 -0.453993 0.691245 0
M  V30 781 H 83.3815 -0.215149 1.68331 0
M  V30 782 H 82.1535 -0.823831 3.82529 0
M  V30 783 H 81.7765 -2.40661 3.16493 0
M  V30 784 N 82.7736 -1.49793 -0.48987 0
M  V30 785 C 83.6836 -1.70036 -1.61632 0
M  V30 786 C 84.6996 -0.583102 -1.63939 0
M  V30 787 O 85.8756 -0.859169 -1.82154 0
M  V30 788 C 82.9406 -1.77277 -2.97949 0
M  V30 789 C 82.0016 -3.00918 -3.06181 0
M  V30 790 C 81.2346 -3.07804 -4.35996 0
M  V30 791 O 81.4576 -2.21982 -5.25433 0
M  V30 792 O 80.3916 -4.00369 -4.49431 0
M  V30 793 H 84.2176 -2.65486 -1.47482 0
M  V30 794 H 81.8026 -1.33666 -0.667362 0
M  V30 795 H 83.6846 -1.84329 -3.78947 0
M  V30 796 H 82.3596 -0.850076 -3.12339 0
M  V30 797 H 81.2666 -2.99377 -2.2433 0
M  V30 798 H 82.5996 -3.92704 -2.96723 0
M  V30 799 N 84.2517 0.741722 -1.39055 0
M  V30 800 C 85.1817 1.869 -1.39966 0
M  V30 801 C 86.1627 1.6804 -0.26392 0
M  V30 802 O 87.3477 1.88458 -0.468755 0
M  V30 803 C 84.4777 3.24572 -1.23574 0
M  V30 804 C 83.4317 3.58056 -2.34477 0
M  V30 805 C 82.7577 4.94593 -2.0318 0
M  V30 806 C 84.0577 3.61716 -3.76774 0
M  V30 807 H 85.7517 1.86395 -2.34302 0
M  V30 808 H 83.2977 0.895361 -1.1278 0
M  V30 809 H 85.2507 4.031 -1.22834 0
M  V30 810 H 83.9747 3.25587 -0.257045 0
M  V30 811 H 82.6337 2.81854 -2.34423 0
M  V30 812 H 82.2817 4.92181 -1.03765 0
M  V30 813 H 81.9817 5.17964 -2.77465 0
M  V30 814 H 83.5057 5.75486 -2.04079 0
M  V30 815 H 84.9197 4.30335 -3.78794 0
M  V30 816 H 83.3167 3.96603 -4.50362 0
M  V30 817 H 84.3867 2.61672 -4.08235 0
M  V30 818 N 85.7298 1.2412 0.971189 0
M  V30 819 C 86.6768 1.0305 2.06517 0
M  V30 820 C 87.6468 -0.0550666 1.66009 0
M  V30 821 O 88.8318 0.0988688 1.90544 0
M  V30 822 C 85.9718 0.637653 3.39158 0
M  V30 823 C 85.0848 1.79633 3.92882 0
M  V30 824 C 84.2198 1.34939 5.13775 0
M  V30 825 C 83.2588 2.47823 5.59687 0
M  V30 826 N 82.3958 2.04022 6.71803 0
M  V30 827 H 87.2358 1.96685 2.23873 0
M  V30 828 H 84.7728 0.979694 1.09729 0
M  V30 829 H 86.7308 0.390931 4.15364 0
M  V30 830 H 85.3608 -0.261693 3.21737 0
M  V30 831 H 84.4128 2.15681 3.13346 0
M  V30 832 H 85.7248 2.64466 4.22918 0
M  V30 833 H 84.8788 1.06134 5.97345 0
M  V30 834 H 83.6178 0.471557 4.85415 0
M  V30 835 H 82.6228 2.77392 4.74693 0
M  V30 836 H 83.8478 3.36158 5.90063 0
M  V30 837 H 81.7938 1.18632 6.45184 0
M  V30 838 H 81.7108 2.82409 7.01271 0
M  V30 839 H 82.9788 1.78347 7.58823 0
M  V30 840 N 87.2079 -1.17134 1.05439 0
M  V30 841 C 88.1709 -2.19439 0.661764 0
M  V30 842 C 89.1709 -1.58199 -0.288042 0
M  V30 843 O 90.3609 -1.74053 -0.0715803 0
M  V30 844 C 87.4929 -3.40889 -0.0276209 0
M  V30 845 H 88.6859 -2.55688 1.56728 0
M  V30 846 H 86.2389 -1.31259 0.848567 0
M  V30 847 H 86.9739 -3.10187 -0.94629 0
M  V30 848 H 86.7589 -3.86586 0.655238 0
M  V30 849 H 88.2489 -4.16603 -0.288342 0
M  V30 850 N 88.686 -0.835752 -1.33615 0
M  V30 851 C 89.935 -0.426289 -1.97144 0
M  V30 852 C 90.248 1.01912 -1.66953 0
M  V30 853 O 91.454 1.53311 -2.24072 0
M  V30 854 C 89.91 -0.711321 -3.52801 0
M  V30 855 C 89.518 -2.1712 -3.91871 0
M  V30 856 C 91.262 -0.368654 -4.22896 0
M  V30 857 C 89.169 -2.40044 -5.40493 0
M  V30 858 H 88.099 -0.15567 -0.737755 0
M  V30 859 H 90.75 -1.0239 -1.52278 0
M  V30 860 H 89.132 -0.0433766 -3.95976 0
M  V30 861 H 90.306 -2.87936 -3.59763 0
M  V30 862 H 88.621 -2.47654 -3.34749 0
M  V30 863 H 91.218 -0.517601 -5.32189 0
M  V30 864 H 91.561 0.688078 -4.10574 0
M  V30 865 H 92.094 -0.991702 -3.8524 0
M  V30 866 H 88.833 -3.44271 -5.57815 0
M  V30 867 H 88.353 -1.73785 -5.74072 0
M  V30 868 H 90.032 -2.23042 -6.0734 0
M  V30 869 N 90.1641 1.46063 -0.591896 0
M  V30 870 C 91.5801 1.57561 -0.254288 0
M  V30 871 C 91.7801 1.58565 1.24336 0
M  V30 872 O 90.8361 1.50753 2.02558 0
M  V30 873 C 92.1491 2.86549 -0.911611 0
M  V30 874 C 93.6971 3.00197 -0.886059 0
M  V30 875 C 94.1721 4.31933 -1.5231 0
M  V30 876 N 95.6631 4.38654 -1.48786 0
M  V30 877 C 96.3981 5.39222 -1.95006 0
M  V30 878 N 95.8941 6.46414 -2.49241 0
M  V30 879 N 97.6871 5.3048 -1.85868 0
M  V30 880 H 89.8381 1.43655 -1.56451 0
M  V30 881 H 92.1011 0.68583 -0.654478 0
M  V30 882 H 91.8071 2.91651 -1.96551 0
M  V30 883 H 91.6811 3.74794 -0.425368 0
M  V30 884 H 94.0681 2.9467 0.159246 0
M  V30 885 H 94.1491 2.13403 -1.41041 0
M  V30 886 H 93.7931 4.38217 -2.56765 0
M  V30 887 H 93.7231 5.17516 -0.973891 0
M  V30 888 H 96.2141 3.61793 -1.09151 0
M  V30 889 H 96.5271 7.19376 -2.82344 0
M  V30 890 H 94.8721 6.47208 -2.53272 0
M  V30 891 H 98.0631 4.45643 -1.43248 0
M  V30 892 H 98.2361 6.08711 -2.22204 0
M  V30 893 N 91.6422 0.330177 1.54103 0
M  V30 894 C 92.8672 -0.274893 2.0557 0
M  V30 895 C 93.2922 -1.44487 1.20437 0
M  V30 896 O 92.6502 -1.80021 0.214991 0
M  V30 897 C 92.6982 -0.68079 3.54115 0
M  V30 898 O 91.8022 -1.7824 3.71893 0
M  V30 899 H 91.1432 -0.0483849 0.662235 0
M  V30 900 H 93.6732 0.480508 1.98878 0
M  V30 901 H 93.6832 -0.961635 3.96505 0
M  V30 902 H 92.3582 0.174903 4.15532 0
M  V30 903 H 90.9352 -1.49985 3.41407 0
M  V30 904 N 93.1203 -1.57491 0.0584922 0
M  V30 905 C 94.3483 -1.97296 -0.623037 0
M  V30 906 C 94.7633 -0.936338 -1.63946 0
M  V30 907 O 94.1203 0.0785981 -1.82331 0
M  V30 908 C 94.1713 -3.37183 -1.30345 0
M  V30 909 O 93.8923 -4.36872 -0.32773 0
M  V30 910 C 95.3933 -3.91788 -2.07406 0
M  V30 911 H 92.6133 -0.649153 -0.169826 0
M  V30 912 H 95.1573 -2.04106 0.12696 0
M  V30 913 H 93.3123 -3.31502 -2.00463 0
M  V30 914 H 93.7263 -5.18141 -0.814269 0
M  V30 915 H 95.2003 -4.91926 -2.50425 0
M  V30 916 H 95.6773 -3.27609 -2.92521 0
M  V30 917 H 96.2833 -4.00829 -1.42184 0
M  V30 918 N 94.5984 0.214957 -1.56127 0
M  V30 919 C 95.8264 0.955092 -1.83536 0
M  V30 920 C 96.2414 1.77677 -0.638472 0
M  V30 921 O 95.5984 1.78219 0.392968 0
M  V30 922 C 95.6494 1.86734 -3.09536 0
M  V30 923 O 95.3704 1.07887 -4.24608 0
M  V30 924 C 96.8714 2.72082 -3.4998 0
M  V30 925 H 94.0914 0.279611 -0.609966 0
M  V30 926 H 96.6354 0.228197 -2.03223 0
M  V30 927 H 94.7904 2.5481 -2.91806 0
M  V30 928 H 95.2044 1.69872 -4.9623 0
M  V30 929 H 96.6784 3.31782 -4.41163 0
M  V30 930 H 97.1554 3.44806 -2.7204 0
M  V30 931 H 97.7614 2.09409 -3.70173 0
M  V30 932 N 96.0765 1.50051 0.48192 0
M  V30 933 C 97.0065 1.71046 1.58951 0
M  V30 934 C 97.9875 0.559288 1.60642 0
M  V30 935 O 99.1725 0.797243 1.77081 0
M  V30 936 C 96.3025 1.79462 2.97339 0
M  V30 937 C 95.2565 2.94558 3.10515 0
M  V30 938 C 94.5825 2.88105 4.50444 0
M  V30 939 C 95.8825 4.35227 2.88747 0
M  V30 940 H 97.5765 2.6378 1.41635 0
M  V30 941 H 95.1225 1.26936 0.679942 0
M  V30 942 H 97.0755 1.92734 3.74742 0
M  V30 943 H 95.7995 0.833412 3.15788 0
M  V30 944 H 94.4585 2.80918 2.35543 0
M  V30 945 H 94.1065 1.89853 4.65795 0
M  V30 946 H 93.8065 3.65366 4.60197 0
M  V30 947 H 95.3305 3.03412 5.29881 0
M  V30 948 H 96.7445 4.49449 3.55905 0
M  V30 949 H 95.1415 5.13856 3.09955 0
M  V30 950 H 96.2115 4.48347 1.84696 0
M  V30 951 N 97.5546 -0.734337 1.39446 0
M  V30 952 C 98.9656 -1.31264 1.32766 0
M  V30 953 C 99.3166 -1.96198 -0.00767497 0
M  V30 954 O 98.4416 -1.96346 -0.909796 0
M  V30 955 C 99.0366 -2.38682 2.4045 0
M  V30 956 C 97.5956 -2.92184 2.37288 0
M  V30 957 C 96.7426 -1.6576 2.22304 0
M  V30 958 H 99.6936 -0.531799 1.49525 0
M  V30 959 H 99.7146 -3.19087 2.07276 0
M  V30 960 H 99.2266 -1.91392 3.37625 0
M  V30 961 H 97.3276 -3.43752 1.43754 0
M  V30 962 H 97.4406 -3.45253 3.3217 0
M  V30 963 H 95.8046 -1.9012 1.69489 0
M  V30 964 H 96.5876 -1.20521 3.21449 0
M  V30 965 N 99.0327 -1.24633 -0.964593 0
M  V30 966 C 99.9807 -1.03917 -2.08096 0
M  V30 967 C 100.975 0.0268581 -1.69379 0
M  V30 968 O 102.181 -0.127952 -1.79545 0
M  V30 969 H 98.5557 -0.319044 -0.680966 0
M  V30 970 H 100.527 -1.98581 -2.22729 0
M  V30 971 C 99.2757 -0.663983 -3.41301 0
M  V30 972 H 98.5987 -1.47605 -3.71555 0
M  V30 973 H 100.039 -0.558663 -4.20303 0
M  V30 974 C 98.4977 0.629169 -3.30973 0
M  V30 975 O 99.0277 1.67404 -3.65156 0
M  V30 976 N 97.2337 0.611057 -2.84103 0
M  V30 977 H 96.7807 -0.239593 -2.56483 0
M  V30 978 H 96.7387 1.47647 -2.77575 0
M  V30 979 N 100.511 1.16574 -1.06058 0
M  V30 980 C 101.759 1.86677 -0.77434 0
M  V30 981 C 102.08 1.81959 0.701147 0
M  V30 982 O 101.35 1.2515 1.50713 0
M  V30 983 H 99.9298 0.691134 -0.283449 0
M  V30 984 H 102.592 1.41378 -1.34158 0
M  V30 985 H 101.688 2.92181 -1.09711 0
M  V30 986 N 101.989 0.842826 1.3317 0
M  V30 987 C 102.936 0.276885 2.29133 0
M  V30 988 C 103.906 -0.609527 1.54512 0
M  V30 989 O 105.091 -0.546955 1.82792 0
M  V30 990 C 102.231 -0.538707 3.40869 0
M  V30 991 C 101.344 0.372169 4.30394 0
M  V30 992 C 100.479 -0.454908 5.29249 0
M  V30 993 C 99.5179 0.45411 6.10413 0
M  V30 994 N 98.6549 -0.335075 7.013 0
M  V30 995 H 103.495 1.10052 2.76934 0
M  V30 996 H 101.032 0.554161 1.36262 0
M  V30 997 H 102.99 -1.02709 4.0436 0
M  V30 998 H 101.62 -1.32727 2.9425 0
M  V30 999 H 100.672 0.97888 3.6759 0
M  V30 1000 H 101.984 1.0703 4.87182 0
M  V30 1001 H 101.138 -1.00695 5.98285 0
M  V30 1002 H 99.8769 -1.18646 4.73048 0
M  V30 1003 H 98.8819 1.01813 5.40291 0
M  V30 1004 H 100.107 1.18409 6.68697 0
M  V30 1005 H 98.0529 -1.04994 6.47543 0
M  V30 1006 H 97.9699 0.304262 7.55387 0
M  V30 1007 H 99.2379 -0.869224 7.74638 0
M  V30 1008 N 103.467 -1.45747 0.599634 0
M  V30 1009 C 104.399 -2.28628 -0.161879 0
M  V30 1010 C 105.412 -1.39494 -0.839367 0
M  V30 1011 O 106.601 -1.63941 -0.706089 0
M  V30 1012 C 103.701 -3.15014 -1.24976 0
M  V30 1013 C 102.874 -4.32378 -0.660935 0
M  V30 1014 C 101.933 -5.00033 -1.63869 0
M  V30 1015 O 100.959 -5.57085 -1.1681 0
M  V30 1016 N 102.161 -4.98589 -2.97303 0
M  V30 1017 H 104.926 -2.94624 0.549265 0
M  V30 1018 H 102.487 -1.55847 0.438565 0
M  V30 1019 H 104.479 -3.5714 -1.9035 0
M  V30 1020 H 103.049 -2.5098 -1.86354 0
M  V30 1021 H 102.269 -3.9383 0.170688 0
M  V30 1022 H 103.557 -5.08197 -0.247619 0
M  V30 1023 H 102.955 -4.53514 -3.38145 0
M  V30 1024 H 101.512 -5.44603 -3.58121 0
M  V30 1025 N 104.945 -0.338344 -1.53925 0
M  V30 1026 C 106.191 0.260143 -2.01125 0
M  V30 1027 C 106.524 1.50617 -1.22589 0
M  V30 1028 O 105.799 1.91979 -0.312113 0
M  V30 1029 C 106.082 0.579499 -3.55407 0
M  V30 1030 C 105.935 -0.678264 -4.44657 0
M  V30 1031 C 107.254 1.39122 -4.17532 0
M  V30 1032 H 104.373 0.0930772 -0.731099 0
M  V30 1033 H 107.015 -0.457852 -1.84401 0
M  V30 1034 H 105.165 1.19118 -3.69788 0
M  V30 1035 H 106.837 -1.31631 -4.42121 0
M  V30 1036 H 105.08 -1.3042 -4.13731 0
M  V30 1037 H 105.751 -0.410143 -5.50474 0
M  V30 1038 H 108.227 0.874035 -4.06817 0
M  V30 1039 H 107.103 1.58342 -5.25565 0
M  V30 1040 H 107.364 2.39178 -3.71815 0
M  V30 1041 N 106.423 1.57458 -0.0668435 0
M  V30 1042 C 107.651 1.97624 0.612565 0
M  V30 1043 C 108.066 0.94502 1.63447 0
M  V30 1044 O 107.423 -0.0689276 1.8237 0
M  V30 1045 C 107.474 3.37869 1.28555 0
M  V30 1046 O 107.195 4.3704 0.304557 0
M  V30 1047 C 108.696 3.92882 2.05325 0
M  V30 1048 H 105.916 0.650045 0.166381 0
M  V30 1049 H 108.46 2.04035 -0.137782 0
M  V30 1050 H 106.615 3.3256 1.98702 0
M  V30 1051 H 107.029 5.18565 0.786779 0
M  V30 1052 H 108.503 4.93247 2.47812 0
M  V30 1053 H 108.98 3.29156 2.9078 0
M  V30 1054 H 109.586 4.01577 1.40056 0
M  V30 1055 N 107.901 -0.206675 1.56239 0
M  V30 1056 C 109.317 -0.557025 1.49564 0
M  V30 1057 C 109.517 -1.86424 0.764735 0
M  V30 1058 O 108.573 -2.50584 0.310491 0
M  V30 1059 C 109.886 -0.622478 2.94186 0
M  V30 1060 C 111.434 -0.712099 3.04792 0
M  V30 1061 C 111.909 -0.808767 4.50803 0
M  V30 1062 N 113.4 -0.8726 4.54907 0
M  V30 1063 C 114.135 -0.967365 5.65181 0
M  V30 1064 N 113.631 -1.02515 6.85173 0
M  V30 1065 N 115.424 -1.00366 5.53067 0
M  V30 1066 H 107.575 0.650943 2.02179 0
M  V30 1067 H 109.838 0.230387 0.919579 0
M  V30 1068 H 109.544 0.268727 3.50672 0
M  V30 1069 H 109.418 -1.4811 3.46905 0
M  V30 1070 H 111.805 -1.59374 2.48363 0
M  V30 1071 H 111.886 0.172489 2.55218 0
M  V30 1072 H 111.53 0.0684754 5.07854 0
M  V30 1073 H 111.46 -1.70899 4.98098 0
M  V30 1074 H 113.951 -0.837657 3.68499 0
M  V30 1075 H 114.264 -1.09765 7.64965 0
M  V30 1076 H 112.609 -0.994026 6.87855 0
M  V30 1077 H 115.8 -0.95527 4.58249 0
M  V30 1078 H 115.973 -1.07405 6.39037 0
M  V30 1079 N 109.379 -1.50304 -0.473955 0
M  V30 1080 C 110.609 -1.64663 -1.24778 0
M  V30 1081 C 111.017 -0.328174 -1.86332 0
M  V30 1082 O 110.36 0.699536 -1.69859 0
M  V30 1083 C 110.422 -2.6778 -2.39863 0
M  V30 1084 C 110.086 -4.11413 -1.98969 0
M  V30 1085 C 111.083 -4.97372 -1.51385 0
M  V30 1086 C 108.768 -4.57312 -2.07777 0
M  V30 1087 C 110.762 -6.27277 -1.13148 0
M  V30 1088 C 108.449 -5.87223 -1.69152 0
M  V30 1089 C 109.447 -6.72031 -1.21915 0
M  V30 1090 O 109.135 -7.99518 -0.838237 0
M  V30 1091 H 108.867 -0.556602 -0.383627 0
M  V30 1092 H 111.421 -1.9726 -0.572491 0
M  V30 1093 H 109.651 -2.30419 -3.10554 0
M  V30 1094 H 111.34 -2.71388 -3.01833 0
M  V30 1095 H 112.106 -4.63128 -1.44004 0
M  V30 1096 H 107.985 -3.91449 -2.43493 0
M  V30 1097 H 111.529 -6.93425 -0.762077 0
M  V30 1098 H 107.426 -6.20989 -1.76191 0
M  V30 1099 H 108.194 -8.12764 -0.967339 0
M  V30 1100 N 110.857 0.726932 -1.39834 0
M  V30 1101 C 111.767 1.87131 -1.41489 0
M  V30 1102 C 112.783 1.71239 -0.308757 0
M  V30 1103 O 113.959 1.93701 -0.551529 0
M  V30 1104 C 111.024 3.22811 -1.26468 0
M  V30 1105 C 110.085 3.51039 -2.47124 0
M  V30 1106 C 109.318 4.80245 -2.3281 0
M  V30 1107 O 109.541 5.54537 -1.33585 0
M  V30 1108 O 108.475 5.08554 -3.21957 0
M  V30 1109 H 112.301 1.8869 -2.3797 0
M  V30 1110 H 109.886 0.875837 -1.21035 0
M  V30 1111 H 111.768 4.03877 -1.20255 0
M  V30 1112 H 110.443 3.22005 -0.330862 0
M  V30 1113 H 109.35 2.70027 -2.58914 0
M  V30 1114 H 110.683 3.56632 -3.39227 0
M  V30 1115 N 112.336 1.25143 0.95797 0
M  V30 1116 C 113.268 1.01023 2.05735 0
M  V30 1117 C 114.281 -0.0236902 1.62783 0
M  V30 1118 O 115.47 0.21448 1.77207 0
M  V30 1119 C 112.57 0.504595 3.35122 0
M  V30 1120 C 111.743 1.6039 4.06932 0
M  V30 1121 C 110.802 1.09922 5.14591 0
M  V30 1122 O 109.828 1.79293 5.40225 0
M  V30 1123 N 111.03 -0.0612545 5.80468 0
M  V30 1124 H 113.795 1.95683 2.26998 0
M  V30 1125 H 111.356 1.16303 1.12629 0
M  V30 1126 H 113.348 0.151516 4.04416 0
M  V30 1127 H 111.918 -0.347989 3.10657 0
M  V30 1128 H 111.138 2.12872 3.31782 0
M  V30 1129 H 112.426 2.34252 4.51667 0
M  V30 1130 H 111.824 -0.640985 5.62057 0
M  V30 1131 H 110.381 -0.355395 6.5083 0
M  V30 1132 N 113.814 -1.1601 1.06675 0
M  V30 1133 C 115.061 -1.86633 0.785781 0
M  V30 1134 C 115.389 -1.81929 -0.687896 0
M  V30 1135 O 114.644 -1.23253 -1.52011 0
M  V30 1136 C 114.943 -3.35547 1.23057 0
M  V30 1137 C 114.609 -3.60448 2.70902 0
M  V30 1138 C 113.271 -3.66954 3.11285 0
M  V30 1139 C 115.623 -3.7071 3.66365 0
M  V30 1140 C 112.951 -3.81225 4.45965 0
M  V30 1141 C 115.303 -3.86503 5.00797 0
M  V30 1142 C 113.967 -3.91252 5.40813 0
M  V30 1143 H 113.237 -0.682937 0.287538 0
M  V30 1144 H 115.884 -1.37146 1.33654 0
M  V30 1145 H 114.189 -3.87193 0.59907 0
M  V30 1146 H 115.886 -3.88583 0.990163 0
M  V30 1147 H 112.476 -3.56021 2.38636 0
M  V30 1148 H 116.66 -3.64991 3.36296 0
M  V30 1149 H 111.916 -3.83155 4.76447 0
M  V30 1150 H 116.09 -3.93385 5.74649 0
M  V30 1151 H 113.717 -4.02062 6.45174 0
M  V30 1152 N 115.292 -0.849877 -1.32721 0
M  V30 1153 C 116.242 -0.262892 -2.26479 0
M  V30 1154 C 117.226 0.588493 -1.49752 0
M  V30 1155 O 118.418 0.438659 -1.71478 0
M  V30 1156 C 115.547 0.551818 -3.38836 0
M  V30 1157 C 114.633 -0.311689 -4.22953 0
M  V30 1158 N 115.024 -1.39567 -4.86163 0
M  V30 1159 C 113.322 -0.100611 -4.45887 0
M  V30 1160 C 114.023 -1.92651 -5.48872 0
M  V30 1161 N 112.999 -1.22637 -5.29586 0
M  V30 1162 H 116.801 -1.09166 -2.72873 0
M  V30 1163 H 114.315 -0.695486 -1.46754 0
M  V30 1164 H 116.312 0.988713 -4.05006 0
M  V30 1165 H 114.972 1.37844 -2.93988 0
M  V30 1166 H 115.983 -1.77859 -4.86402 0
M  V30 1167 H 112.66 0.691681 -4.11731 0
M  V30 1168 H 114.05 -2.83487 -6.09167 0
M  V30 1169 N 116.77 1.45427 -0.607355 0
M  V30 1170 C 117.718 2.32269 0.12411 0
M  V30 1171 C 118.712 1.45955 0.859854 0
M  V30 1172 O 119.918 1.6244 0.775447 0
M  V30 1173 H 116.293 0.749691 0.0588839 0
M  V30 1174 H 118.264 2.91743 -0.626762 0
M  V30 1175 C 117.013 3.29567 1.1082 0
M  V30 1176 H 116.336 3.95978 0.551492 0
M  V30 1177 H 117.776 3.93061 1.58995 0
M  V30 1178 C 116.235 2.56722 2.18164 0
M  V30 1179 O 116.765 2.34842 3.25902 0
M  V30 1180 N 114.971 2.16861 1.93442 0
M  V30 1181 H 114.518 2.34855 1.05834 0
M  V30 1182 H 114.476 1.68444 2.65469 0
M  V30 1183 N 118.248 0.346503 1.53744 0
M  V30 1184 C 119.496 -0.248612 2.00565 0
M  V30 1185 C 119.817 -1.5083 1.23593 0
M  V30 1186 O 119.087 -1.92858 0.343912 0
M  V30 1187 H 117.667 -0.0948564 0.740953 0
M  V30 1188 H 120.329 0.468341 1.89189 0
M  V30 1189 H 119.425 -0.488994 3.08245 0
M  V30 1190 N 119.726 -1.57421 0.075193 0
M  V30 1191 C 120.972 -1.93905 -0.594025 0
M  V30 1192 C 121.305 -0.955701 -1.69056 0
M  V30 1193 O 120.58 0.0145373 -1.94495 0
M  V30 1194 C 120.863 -3.40638 -1.1678 0
M  V30 1195 C 120.716 -4.49733 -0.0776792 0
M  V30 1196 C 122.035 -3.88259 -2.07228 0
M  V30 1197 H 119.154 -0.705105 -0.214466 0
M  V30 1198 H 121.796 -1.8947 0.141854 0
M  V30 1199 H 119.946 -3.44549 -1.79494 0
M  V30 1200 H 121.618 -4.57942 0.555573 0
M  V30 1201 H 119.861 -4.29751 0.591286 0
M  V30 1202 H 120.532 -5.49549 -0.519603 0
M  V30 1203 H 123.008 -3.86376 -1.54445 0
M  V30 1204 H 121.884 -4.91533 -2.44308 0
M  V30 1205 H 122.145 -3.26396 -2.98191 0
M  V30 1206 N 121.204 0.198386 -1.56346 0
M  V30 1207 C 122.62 0.549085 -1.49857 0
M  V30 1208 C 122.82 1.86016 -0.774611 0
M  V30 1209 O 121.876 2.50416 -0.323776 0
M  V30 1210 C 123.189 0.606868 -2.94512 0
M  V30 1211 C 124.737 0.695925 -3.05165 0
M  V30 1212 C 125.212 0.784848 -4.51225 0
M  V30 1213 N 126.703 0.848463 -4.55363 0
M  V30 1214 C 127.438 0.937378 -5.65686 0
M  V30 1215 N 126.934 0.9888 -6.85707 0
M  V30 1216 N 128.727 0.974312 -5.53592 0
M  V30 1217 H 120.878 -0.661655 -2.01831 0
M  V30 1218 H 123.141 -0.235261 -0.918344 0
M  V30 1219 H 122.847 -0.28732 -3.50524 0
M  V30 1220 H 122.721 1.46268 -3.47686 0
M  V30 1221 H 125.108 1.58055 -2.49204 0
M  V30 1222 H 125.189 -0.186022 -2.55123 0
M  V30 1223 H 124.833 -0.0954072 -5.0781 0
M  V30 1224 H 124.763 1.68255 -4.98997 0
M  V30 1225 H 127.254 0.818103 -3.68938 0
M  V30 1226 H 127.567 1.05707 -7.65536 0
M  V30 1227 H 125.912 0.957534 -6.88372 0
M  V30 1228 H 129.103 0.930954 -4.58749 0
M  V30 1229 H 129.276 1.04015 -6.39597 0
M  V30 1230 N 122.682 1.50554 0.465978 0
M  V30 1231 C 123.928 1.62038 1.21949 0
M  V30 1232 C 124.261 0.322116 1.9151 0
M  V30 1233 O 123.536 -0.676723 1.82348 0
M  V30 1234 C 123.819 2.80421 2.25912 0
M  V30 1235 C 123.672 4.20144 1.60622 0
M  V30 1236 C 124.991 2.94354 3.27176 0
M  V30 1237 H 122.11 0.589752 0.441998 0
M  V30 1238 H 124.752 1.82956 0.51257 0
M  V30 1239 H 122.902 2.62717 2.86203 0
M  V30 1240 H 124.574 4.49449 1.03889 0
M  V30 1241 H 122.817 4.24165 0.909211 0
M  V30 1242 H 123.488 4.98914 2.36196 0
M  V30 1243 H 125.964 3.10578 2.76913 0
M  V30 1244 H 124.84 3.788 3.97242 0
M  V30 1245 H 125.101 2.05186 3.916 0
M  V30 1246 N 124.16 -0.719506 1.40217 0
M  V30 1247 C 125.406 -1.48152 1.38488 0
M  V30 1248 C 125.739 -1.94195 -0.0141867 0
M  V30 1249 O 125.014 -1.67884 -0.982096 0
M  V30 1250 C 125.297 -2.71035 2.37091 0
M  V30 1251 C 125.15 -2.30912 3.86005 0
M  V30 1252 C 126.469 -3.73182 2.33288 0
M  V30 1253 H 123.588 -0.537395 0.504357 0
M  V30 1254 H 126.23 -0.821472 1.71324 0
M  V30 1255 H 124.38 -3.27352 2.0922 0
M  V30 1256 H 126.052 -1.80107 4.24687 0
M  V30 1257 H 124.295 -1.62958 4.02029 0
M  V30 1258 H 124.966 -3.18978 4.50508 0
M  V30 1259 H 127.442 -3.26485 2.57966 0
M  V30 1260 H 126.318 -4.56806 3.04334 0
M  V30 1261 H 126.579 -4.21202 1.34317 0
M  V30 1262 N 125.638 -1.25649 -0.95132 0
M  V30 1263 C 126.886 -1.10375 -1.69298 0
M  V30 1264 C 127.207 0.355339 -1.91735 0
M  V30 1265 O 126.477 1.25188 -1.50681 0
M  V30 1266 H 125.057 -0.405461 -0.627384 0
M  V30 1267 H 127.719 -1.57823 -1.14358 0
M  V30 1268 H 126.815 -1.61465 -2.67087 0
M  V30 1269 N 127.117 1.15442 -1.07289 0
M  V30 1270 C 128.027 2.23786 -0.704057 0
M  V30 1271 C 129.043 1.7166 0.284413 0
M  V30 1272 O 130.219 2.00972 0.131205 0
M  V30 1273 C 127.284 3.46535 -0.106792 0
M  V30 1274 C 126.345 4.13654 -1.14842 0
M  V30 1275 C 125.578 5.30544 -0.57956 0
M  V30 1276 O 125.801 5.67187 0.604585 0
M  V30 1277 O 124.735 5.87154 -1.32414 0
M  V30 1278 H 128.561 2.57664 -1.60757 0
M  V30 1279 H 126.146 1.23152 -0.845803 0
M  V30 1280 H 128.028 4.20804 0.224048 0
M  V30 1281 H 126.703 3.14407 0.770049 0
M  V30 1282 H 125.61 3.4131 -1.5316 0
M  V30 1283 H 126.943 4.49861 -1.99714 0
M  V30 1284 N 128.595 0.856903 1.32268 0
M  V30 1285 C 129.558 0.308171 2.27119 0
M  V30 1286 C 130.558 -0.533421 1.51695 0
M  V30 1287 O 131.748 -0.344607 1.70757 0
M  V30 1288 C 128.88 -0.563757 3.36206 0
M  V30 1289 H 130.073 1.14535 2.77167 0
M  V30 1290 H 127.626 0.631421 1.42978 0
M  V30 1291 H 128.361 -1.42266 2.91429 0
M  V30 1292 H 128.146 0.0386749 3.92081 0
M  V30 1293 H 129.636 -0.940386 4.06874 0
M  V30 1294 N 130.073 -1.45103 0.615059 0
M  V30 1295 C 131.322 -2.01396 0.110718 0
M  V30 1296 C 131.635 -1.48834 -1.26916 0
M  V30 1297 O 132.841 -1.97152 -1.86664 0
M  V30 1298 C 131.297 -3.59599 0.14723 0
M  V30 1299 C 130.905 -4.21158 1.52743 0
M  V30 1300 C 132.649 -4.23428 -0.30148 0
M  V30 1301 C 130.556 -5.71535 1.51992 0
M  V30 1302 H 129.486 -0.753061 0.0376241 0
M  V30 1303 H 132.137 -1.66494 0.77149 0
M  V30 1304 H 130.519 -3.91724 -0.580339 0
M  V30 1305 H 131.693 -4.00594 2.2773 0
M  V30 1306 H 130.008 -3.69552 1.91886 0
M  V30 1307 H 132.605 -5.33703 -0.326392 0
M  V30 1308 H 132.948 -3.94629 -1.32565 0
M  V30 1309 H 133.481 -3.96047 0.373065 0
M  V30 1310 H 130.22 -6.05044 2.52193 0
M  V30 1311 H 129.74 -5.94268 0.81274 0
M  V30 1312 H 131.419 -6.34873 1.24681 0
M  V30 1313 N 131.551 -0.354651 -1.53558 0
M  V30 1314 C 132.779 0.239515 -2.05509 0
M  V30 1315 C 133.194 1.4333 -1.2289 0
M  V30 1316 O 132.551 1.80538 -0.266899 0
M  V30 1317 C 132.602 0.643719 -3.55723 0
M  V30 1318 O 132.323 -0.502602 -4.35207 0
M  V30 1319 C 133.824 1.29743 -4.23889 0
M  V30 1320 H 131.044 0.0442697 -0.669538 0
M  V30 1321 H 133.588 -0.509856 -1.98042 0
M  V30 1322 H 131.743 1.34302 -3.63376 0
M  V30 1323 H 132.157 -0.178172 -5.24197 0
M  V30 1324 H 133.631 1.53091 -5.30346 0
M  V30 1325 H 134.108 2.25441 -3.76926 0
M  V30 1326 H 134.714 0.639865 -4.20459 0
M  V30 1327 N 133.029 1.57378 -0.0835403 0
M  V30 1328 C 133.939 2.16897 0.894021 0
M  V30 1329 C 134.955 1.13528 1.31861 0
M  V30 1330 O 136.131 1.45848 1.3889 0
M  V30 1331 C 133.196 2.72831 2.13925 0
M  V30 1332 C 132.257 3.91115 1.76997 0
M  V30 1333 C 131.49 4.44371 2.95584 0
M  V30 1334 O 131.713 3.96596 4.09961 0
M  V30 1335 O 130.647 5.35549 2.74719 0
M  V30 1336 H 134.473 3.00814 0.417679 0
M  V30 1337 H 132.058 1.48741 0.140181 0
M  V30 1338 H 133.94 3.0863 2.86924 0
M  V30 1339 H 132.615 1.91967 2.60635 0
M  V30 1340 H 131.522 3.60148 1.01214 0
M  V30 1341 H 132.855 4.73307 1.3506 0
M  V30 1342 N 134.507 -0.190092 1.56449 0
M  V30 1343 C 135.753 -0.911052 1.81184 0
M  V30 1344 C 136.086 -1.82699 0.658396 0
M  V30 1345 O 135.361 -1.91491 -0.340775 0
M  V30 1346 C 135.644 -1.72297 3.16205 0
M  V30 1347 C 135.497 -0.831419 4.42049 0
M  V30 1348 C 136.816 -2.69454 3.47969 0
M  V30 1349 H 133.935 -0.32977 0.659106 0
M  V30 1350 H 136.577 -0.178169 1.89163 0
M  V30 1351 H 134.727 -2.34778 3.09534 0
M  V30 1352 H 136.399 -0.220929 4.60771 0
M  V30 1353 H 134.642 -0.138406 4.33579 0
M  V30 1354 H 135.313 -1.43461 5.33032 0
M  V30 1355 H 137.789 -2.17104 3.54972 0
M  V30 1356 H 136.665 -3.23342 4.43555 0
M  V30 1357 H 136.926 -3.48744 2.71717 0
M  V30 1358 N 135.985 -1.50799 -0.457987 0
M  V30 1359 C 136.932 -1.70617 -1.5543 0
M  V30 1360 C 137.902 -0.547562 -1.56815 0
M  V30 1361 O 139.087 -0.779647 -1.74144 0
M  V30 1362 C 136.227 -1.81831 -2.93311 0
M  V30 1363 C 135.34 -3.09278 -3.01615 0
M  V30 1364 C 134.475 -3.11209 -4.30491 0
M  V30 1365 C 133.514 -4.33055 -4.32585 0
M  V30 1366 N 132.651 -4.32652 -5.52952 0
M  V30 1367 H 137.491 -2.64207 -1.37836 0
M  V30 1368 H 135.028 -1.30959 -0.669937 0
M  V30 1369 H 136.986 -1.86314 -3.73287 0
M  V30 1370 H 135.616 -0.916685 -3.0951 0
M  V30 1371 H 134.668 -3.14203 -2.1443 0
M  V30 1372 H 135.98 -3.99233 -2.99022 0
M  V30 1373 H 135.134 -3.14494 -5.18824 0
M  V30 1374 H 133.873 -2.19106 -4.35711 0
M  V30 1375 H 132.878 -4.29969 -3.42647 0
M  V30 1376 H 134.103 -5.264 -4.29046 0
M  V30 1377 H 132.049 -3.43409 -5.58933 0
M  V30 1378 H 131.966 -5.16392 -5.52155 0
M  V30 1379 H 133.234 -4.40101 -6.43375 0
M  V30 1380 N 137.463 0.71206 -1.40597 0
M  V30 1381 C 138.711 1.46907 -1.38791 0
M  V30 1382 C 139.032 1.94998 0.00780391 0
M  V30 1383 O 138.302 1.70587 0.963174 0
M  V30 1384 H 136.882 0.545043 -0.51082 0
M  V30 1385 H 139.544 0.843882 -1.75683 0
M  V30 1386 H 138.64 2.34021 -2.06496 0
M  V30 1387 N 138.941 1.26152 0.944643 0
M  V30 1388 C 140.352 1.10454 1.50522 0
M  V30 1389 C 140.703 -0.31635 1.93633 0
M  V30 1390 O 139.828 -1.20746 1.79581 0
M  V30 1391 C 140.423 1.99891 2.73549 0
M  V30 1392 C 138.982 1.88348 3.25886 0
M  V30 1393 C 138.129 1.93447 1.9868 0
M  V30 1394 H 141.08 1.39292 0.760489 0
M  V30 1395 H 141.101 1.54477 3.47732 0
M  V30 1396 H 140.613 3.03297 2.42141 0
M  V30 1397 H 138.714 0.878636 3.62092 0
M  V30 1398 H 138.827 2.73696 3.93227 0
M  V30 1399 H 137.191 1.37456 2.14425 0
M  V30 1400 H 137.974 2.98476 1.69607 0
M  V30 1401 N 140.419 -1.14872 1.07899 0
M  V30 1402 C 141.667 -1.85422 0.803941 0
M  V30 1403 C 141.988 -1.83051 -0.67211 0
M  V30 1404 O 141.258 -1.27532 -1.48703 0
M  V30 1405 H 139.838 -0.686537 0.294408 0
M  V30 1406 H 142.5 -1.39226 1.3639 0
M  V30 1407 H 141.596 -2.90399 1.14346 0
M  V30 1408 N 141.898 -0.863906 -1.31812 0
M  V30 1409 C 142.845 -0.313303 -2.28664 0
M  V30 1410 C 143.815 0.584868 -1.55462 0
M  V30 1411 O 145 0.517805 -1.83639 0
M  V30 1412 C 142.14 0.48441 -3.41683 0
M  V30 1413 C 141.253 -0.440594 -4.29747 0
M  V30 1414 C 140.388 0.370652 -5.29905 0
M  V30 1415 C 139.427 -0.551164 -6.09613 0
M  V30 1416 N 138.564 0.223462 -7.01744 0
M  V30 1417 H 143.404 -1.14444 -2.75148 0
M  V30 1418 H 140.941 -0.575769 -1.35364 0
M  V30 1419 H 142.899 0.962627 -4.05943 0
M  V30 1420 H 141.529 1.28029 -2.96325 0
M  V30 1421 H 140.581 -1.03724 -3.65986 0
M  V30 1422 H 141.893 -1.14767 -4.85417 0
M  V30 1423 H 141.047 0.911638 -5.99812 0
M  V30 1424 H 139.786 1.11105 -4.74876 0
M  V30 1425 H 138.791 -1.10396 -5.38603 0
M  V30 1426 H 140.016 -1.29032 -6.66729 0
M  V30 1427 H 137.962 0.946787 -6.49132 0
M  V30 1428 H 137.879 -0.424399 -7.54808 0
M  V30 1429 H 139.147 0.745876 -7.75923 0
M  V30 1430 N 143.376 1.44774 -0.622745 0
M  V30 1431 C 144.601 2.06999 -0.128968 0
M  V30 1432 C 145.026 1.4617 1.1839 0
M  V30 1433 O 144.384 0.560007 1.72434 0
M  V30 1434 C 144.432 3.60595 -0.0188351 0
M  V30 1435 O 143.536 3.99398 1.02739 0
M  V30 1436 H 142.877 0.659047 -0.0809544 0
M  V30 1437 H 145.407 1.85784 -0.85705 0
M  V30 1438 H 145.417 4.07627 0.174476 0
M  V30 1439 H 144.092 4.04252 -0.977384 0
M  V30 1440 H 142.669 3.64011 0.809326 0
M  V30 1441 N 144.854 0.36279 1.53368 0
M  V30 1442 C 146.1 -0.228113 2.01513 0
M  V30 1443 C 146.433 -1.48648 1.2497 0
M  V30 1444 O 145.708 -1.91459 0.342616 0
M  V30 1445 C 145.991 -0.522884 3.56284 0
M  V30 1446 C 145.844 0.74892 4.43521 0
M  V30 1447 C 147.163 -1.32461 4.19693 0
M  V30 1448 H 144.282 -0.0814343 0.732487 0
M  V30 1449 H 146.924 0.48713 1.83649 0
M  V30 1450 H 145.074 -1.1322 3.71636 0
M  V30 1451 H 146.746 1.38648 4.39971 0
M  V30 1452 H 144.989 1.36986 4.11603 0
M  V30 1453 H 145.66 0.497667 5.49752 0
M  V30 1454 H 148.136 -0.809203 4.08156 0
M  V30 1455 H 147.012 -1.49961 5.28018 0
M  V30 1456 H 147.273 -2.33232 3.75573 0
M  V30 1457 N 146.332 -1.57332 0.0918853 0
M  V30 1458 C 147.295 -2.12708 -0.85369 0
M  V30 1459 C 148.295 -1.05561 -1.213 0
M  V30 1460 O 149.485 -1.31461 -1.14296 0
M  V30 1461 C 146.617 -2.64503 -2.15061 0
M  V30 1462 H 147.81 -2.97573 -0.3729 0
M  V30 1463 H 145.363 -1.55509 -0.157072 0
M  V30 1464 H 146.098 -1.83149 -2.67632 0
M  V30 1465 H 145.883 -3.4284 -1.90272 0
M  V30 1466 H 147.373 -3.07351 -2.82711 0
M  V30 1467 N 147.81 0.181792 -1.56548 0
M  V30 1468 C 148.773 1.20894 -1.94724 0
M  V30 1469 C 149.773 1.37738 -0.829747 0
M  V30 1470 O 150.963 1.35323 -1.09697 0
M  V30 1471 C 148.095 2.57593 -2.23291 0
M  V30 1472 H 149.288 0.882275 -2.86629 0
M  V30 1473 H 146.841 0.423838 -1.50444 0
M  V30 1474 H 147.576 2.95291 -1.34067 0
M  V30 1475 H 147.361 2.46735 -3.04736 0
M  V30 1476 H 148.851 3.31637 -2.53785 0
M  V30 1477 N 149.288 1.51039 0.449983 0
M  V30 1478 C 150.22 1.67617 1.56324 0
M  V30 1479 C 151.233 0.557083 1.52972 0
M  V30 1480 O 152.422 0.830989 1.57977 0
M  V30 1481 C 149.522 1.66402 2.95235 0
M  V30 1482 C 148.695 2.9469 3.23229 0
M  V30 1483 C 147.754 2.85832 4.41799 0
M  V30 1484 O 146.78 3.59785 4.41071 0
M  V30 1485 N 147.982 2.00821 5.44657 0
M  V30 1486 H 150.747 2.63648 1.42512 0
M  V30 1487 H 148.308 1.48767 0.638737 0
M  V30 1488 H 150.3 1.58062 3.72557 0
M  V30 1489 H 148.87 0.780182 3.02708 0
M  V30 1490 H 148.09 3.16996 2.34323 0
M  V30 1491 H 149.378 3.79636 3.38754 0
M  V30 1492 H 148.776 1.40091 5.48079 0
M  V30 1493 H 147.333 1.98368 6.20881 0
M  V30 1494 N 150.766 -0.704594 1.40972 0
M  V30 1495 C 152.182 -1.01406 1.23244 0
M  V30 1496 C 152.382 -2.01169 0.115399 0
M  V30 1497 O 151.438 -2.47021 -0.523147 0
M  V30 1498 C 152.751 -1.54728 2.57836 0
M  V30 1499 C 154.299 -1.66658 2.64942 0
M  V30 1500 C 154.774 -2.23383 3.9983 0
M  V30 1501 N 156.265 -2.30756 4.01629 0
M  V30 1502 C 157 -2.75655 5.02794 0
M  V30 1503 N 156.496 -3.20225 6.14352 0
M  V30 1504 N 158.289 -2.75138 4.90159 0
M  V30 1505 H 150.44 -0.0435285 2.12355 0
M  V30 1506 H 152.703 -0.0818951 0.944456 0
M  V30 1507 H 152.409 -0.888832 3.40283 0
M  V30 1508 H 152.283 -2.53084 2.79693 0
M  V30 1509 H 154.67 -2.31617 1.8286 0
M  V30 1510 H 154.751 -0.668717 2.46904 0
M  V30 1511 H 154.395 -1.59043 4.82357 0
M  V30 1512 H 154.325 -3.23904 4.15203 0
M  V30 1513 H 156.816 -1.99291 3.21079 0
M  V30 1514 H 157.129 -3.53084 6.87424 0
M  V30 1515 H 155.474 -3.18156 6.17901 0
M  V30 1516 H 158.665 -2.39661 4.02095 0
M  V30 1517 H 158.838 -3.09812 5.6914 0
M  V30 1518 N 152.244 -1.26651 -0.937939 0
M  V30 1519 C 153.469 -1.15279 -1.72411 0
M  V30 1520 C 153.894 0.287866 -1.85884 0
M  V30 1521 O 153.252 1.20855 -1.35143 0
M  V30 1522 C 153.3 -1.83028 -3.10698 0
M  V30 1523 O 152.404 -1.12128 -3.96864 0
M  V30 1524 H 151.745 -0.401504 -0.528858 0
M  V30 1525 H 154.275 -1.67531 -1.1745 0
M  V30 1526 H 154.285 -1.89981 -3.6107 0
M  V30 1527 H 152.96 -2.87833 -3.00208 0
M  V30 1528 H 151.537 -1.13173 -3.55312 0
M  V30 1529 N 153.722 1.14298 -1.08507 0
M  V30 1530 C 154.97 1.84993 -0.813763 0
M  V30 1531 C 155.291 1.83405 0.662393 0
M  V30 1532 O 154.561 1.28319 1.48024 0
M  V30 1533 H 153.141 0.684966 -0.298045 0
M  V30 1534 H 155.803 1.385 -1.37126 0
M  V30 1535 H 154.899 2.89788 -1.15884 0
M  V30 1536 N 155.201 0.870884 1.31352 0
M  V30 1537 C 156.151 0.298889 2.26032 0
M  V30 1538 C 157.135 -0.564595 1.50669 0
M  V30 1539 O 158.327 -0.411323 1.72154 0
M  V30 1540 C 155.456 -0.497842 3.39671 0
M  V30 1541 C 154.542 0.378937 4.22404 0
M  V30 1542 N 154.933 1.47284 4.83881 0
M  V30 1543 C 153.231 0.171535 4.4567 0
M  V30 1544 C 153.932 2.01359 5.45738 0
M  V30 1545 N 152.908 1.31047 5.27568 0
M  V30 1546 H 156.71 1.13494 2.71102 0
M  V30 1547 H 154.224 0.718745 1.45629 0
M  V30 1548 H 156.221 -0.924155 4.06528 0
M  V30 1549 H 154.881 -1.33149 2.96144 0
M  V30 1550 H 155.892 1.85575 4.8351 0
M  V30 1551 H 152.569 -0.626091 4.12779 0
M  V30 1552 H 153.959 2.93143 6.0458 0
M  V30 1553 N 156.679 -1.44442 0.630414 0
M  V30 1554 C 157.926 -2.02052 0.134617 0
M  V30 1555 C 158.254 -1.49576 -1.24327 0
M  V30 1556 O 157.509 -0.669806 -1.83881 0
M  V30 1557 C 157.808 -3.57332 0.0697835 0
M  V30 1558 C 157.474 -4.29058 1.38635 0
M  V30 1559 C 156.136 -4.4837 1.74694 0
M  V30 1560 C 158.488 -4.69872 2.25543 0
M  V30 1561 C 155.816 -5.05756 2.97369 0
M  V30 1562 C 158.168 -5.28616 3.47487 0
M  V30 1563 C 156.832 -5.46147 3.8377 0
M  V30 1564 H 156.102 -0.739361 0.0492598 0
M  V30 1565 H 158.749 -1.73217 0.816586 0
M  V30 1566 H 157.054 -3.85577 -0.695553 0
M  V30 1567 H 158.751 -3.99637 -0.330344 0
M  V30 1568 H 155.341 -4.14357 1.09574 0
M  V30 1569 H 159.525 -4.54666 1.98979 0
M  V30 1570 H 154.781 -5.17515 3.25558 0
M  V30 1571 H 158.955 -5.59192 4.15063 0
M  V30 1572 H 156.582 -5.9038 4.7891 0
M  V30 1573 N 158.157 -0.370918 -1.53173 0
M  V30 1574 C 159.403 0.217423 -2.01631 0
M  V30 1575 C 159.736 1.47983 -1.25756 0
M  V30 1576 O 159.011 1.91274 -0.352764 0
M  V30 1577 C 159.294 0.503982 -3.56556 0
M  V30 1578 C 159.147 -0.77243 -4.43118 0
M  V30 1579 C 160.466 1.30234 -4.20389 0
M  V30 1580 H 157.585 0.0775486 -0.732909 0
M  V30 1581 H 160.227 -0.496863 -1.83388 0
M  V30 1582 H 158.377 1.11248 -3.72231 0
M  V30 1583 H 160.049 -1.4098 -4.39229 0
M  V30 1584 H 158.292 -1.39167 -4.10871 0
M  V30 1585 H 158.963 -0.526815 -5.4948 0
M  V30 1586 H 161.439 0.787546 -4.08579 0
M  V30 1587 H 160.315 1.47158 -5.28806 0
M  V30 1588 H 160.576 2.31237 -3.76805 0
M  V30 1589 N 159.635 1.57281 -0.100228 0
M  V30 1590 C 160.598 2.13158 0.842398 0
M  V30 1591 C 161.598 1.06202 1.20738 0
M  V30 1592 O 162.788 1.32066 1.13597 0
M  V30 1593 C 159.92 2.65639 2.13655 0
M  V30 1594 H 161.113 2.97766 0.357114 0
M  V30 1595 H 158.666 1.5559 0.148823 0
M  V30 1596 H 159.401 1.84566 2.66657 0
M  V30 1597 H 159.186 3.43844 1.88451 0
M  V30 1598 H 160.676 3.08846 2.81077 0
M  V30 1599 N 161.113 -0.173488 1.56642 0
M  V30 1600 C 162.061 -1.23417 1.97157 0
M  V30 1601 C 163.055 -1.45946 0.860013 0
M  V30 1602 O 164.261 -1.46551 1.04512 0
M  V30 1603 H 160.636 -0.414818 0.62724 0
M  V30 1604 H 162.607 -0.865582 2.8557 0
M  V30 1605 C 161.356 -2.5665 2.34576 0
M  V30 1606 H 160.679 -2.40137 3.19647 0
M  V30 1607 H 162.119 -3.2956 2.6677 0
M  V30 1608 C 160.578 -3.15245 1.18836 0
M  V30 1609 O 161.108 -3.98883 0.474869 0
M  V30 1610 N 159.314 -2.74303 0.959497 0
M  V30 1611 H 158.861 -2.0639 1.54146 0
M  V30 1612 H 158.819 -3.13844 0.186932 0
M  V30 1613 N 162.591 -1.51276 -0.441967 0
M  V30 1614 C 163.84 -1.6295 -1.18871 0
M  V30 1615 C 164.153 -0.349312 -1.92456 0
M  V30 1616 O 165.359 -0.345355 -2.69295 0
M  V30 1617 C 163.815 -2.87759 -2.16155 0
M  V30 1618 C 163.423 -4.22764 -1.48239 0
M  V30 1619 C 165.167 -3.08788 -2.91291 0
M  V30 1620 C 163.074 -5.38728 -2.4398 0
M  V30 1621 H 162.004 -0.606913 -0.447406 0
M  V30 1622 H 164.655 -1.77739 -0.456205 0
M  V30 1623 H 163.037 -2.66593 -2.92821 0
M  V30 1624 H 164.211 -4.54293 -0.771635 0
M  V30 1625 H 162.526 -4.07575 -0.852741 0
M  V30 1626 H 165.123 -3.92599 -3.63002 0
M  V30 1627 H 165.466 -2.21679 -3.5237 0
M  V30 1628 H 165.999 -3.30272 -2.21733 0
M  V30 1629 H 162.738 -6.28082 -1.87598 0
M  V30 1630 H 162.258 -5.1158 -3.13123 0
M  V30 1631 H 163.937 -5.70489 -3.05207 0
M  V30 1632 N 164.069 0.697108 -1.41344 0
M  V30 1633 C 165.032 1.79281 -1.42797 0
M  V30 1634 C 166.032 1.57607 -0.318837 0
M  V30 1635 O 167.222 1.64309 -0.578642 0
M  V30 1636 C 164.354 3.17632 -1.23785 0
M  V30 1637 H 165.547 1.79385 -2.40335 0
M  V30 1638 H 163.1 0.904582 -1.27464 0
M  V30 1639 H 163.835 3.23167 -0.270814 0
M  V30 1640 H 163.62 3.34765 -2.04144 0
M  V30 1641 H 165.11 3.97617 -1.27633 0
M  V30 1642 N 165.547 1.27147 0.931209 0
M  V30 1643 C 166.51 1.09615 2.01289 0
M  V30 1644 C 167.51 0.0412581 1.60747 0
M  V30 1645 O 168.7 0.285545 1.71844 0
M  V30 1646 C 165.832 0.669447 3.34262 0
M  V30 1647 H 167.025 2.05662 2.18273 0
M  V30 1648 H 164.578 1.09885 1.11153 0
M  V30 1649 H 165.313 -0.292572 3.22978 0
M  V30 1650 H 165.098 1.43127 3.65044 0
M  V30 1651 H 166.588 0.568921 4.13706 0
M  V30 1652 N 167.025 -1.13721 1.09112 0
M  V30 1653 C 168.302 -1.81155 0.737706 0
M  V30 1654 C 168.682 -1.96253 -0.777683 0
M  V30 1655 O 168.03 -1.52807 -1.69889 0
M  V30 1656 C 168.24 -3.16392 1.47299 0
M  V30 1657 C 169.588 -3.91787 1.63671 0
M  V30 1658 O 170.612 -3.26005 1.43524 0
M  V30 1659 O 169.471 -5.0977 1.96969 0
M  V30 1660 H 166.565 -0.783518 0.26463 0
M  V30 1661 H 169.111 -1.20676 1.19312 0
M  V30 1662 H 167.883 -3.0061 2.50498 0
M  V30 1663 H 167.506 -3.8457 1.00953 0
M  V30 1664 N 168.503 -0.877838 -1.30888 0
M  V30 1665 C 169.433 -0.35534 -2.3078 0
M  V30 1666 C 170.414 0.557994 -1.60687 0
M  V30 1667 O 171.599 0.473355 -1.88343 0
M  V30 1668 C 168.729 0.437221 -3.44537 0
M  V30 1669 C 167.683 -0.383715 -4.26276 0
M  V30 1670 C 167.009 0.535014 -5.32017 0
M  V30 1671 C 168.309 -1.62201 -4.96476 0
M  V30 1672 H 170.003 -1.19007 -2.74732 0
M  V30 1673 H 167.549 -0.573698 -1.32078 0
M  V30 1674 H 169.502 0.813334 -4.13477 0
M  V30 1675 H 168.226 1.30553 -2.99372 0
M  V30 1676 H 166.885 -0.741874 -3.59015 0
M  V30 1677 H 166.533 1.40083 -4.831 0
M  V30 1678 H 166.233 -0.0104211 -5.87599 0
M  V30 1679 H 167.757 0.907799 -6.03814 0
M  V30 1680 H 169.171 -1.31689 -5.5797 0
M  V30 1681 H 167.568 -2.10711 -5.61891 0
M  V30 1682 H 168.638 -2.37044 -4.23011 0
M  V30 1683 N 169.982 1.44106 -0.638065 0
M  V30 1684 C 171.393 1.85316 -0.226894 0
M  V30 1685 C 171.744 1.53399 1.22324 0
M  V30 1686 O 170.869 0.975463 1.93167 0
M  V30 1687 C 171.464 3.3637 -0.405013 0
M  V30 1688 C 170.023 3.76369 -0.0482902 0
M  V30 1689 C 169.17 2.67921 -0.715108 0
M  V30 1690 H 172.121 1.34474 -0.842764 0
M  V30 1691 H 172.142 3.7885 0.354 0
M  V30 1692 H 171.654 3.59569 -1.46053 0
M  V30 1693 H 169.755 3.58784 1.00522 0
M  V30 1694 H 169.868 4.76856 -0.463187 0
M  V30 1695 H 168.232 2.54259 -0.149753 0
M  V30 1696 H 169.015 2.93951 -1.77335 0
M  V30 1697 N 171.46 0.379036 1.52974 0
M  V30 1698 C 172.708 -0.206014 2.01047 0
M  V30 1699 C 173.029 -1.48175 1.26765 0
M  V30 1700 O 172.299 -1.92085 0.384743 0
M  V30 1701 H 170.879 -0.0791184 0.742798 0
M  V30 1702 H 173.541 0.508366 1.88153 0
M  V30 1703 H 172.637 -0.423501 3.09213 0
M  V30 1704 N 172.938 -1.57226 0.108567 0
M  V30 1705 C 174.163 -1.99604 -0.563303 0
M  V30 1706 C 174.588 -0.987563 -1.6009 0
M  V30 1707 O 173.946 0.0421687 -1.81251 0
M  V30 1708 C 173.994 -3.40902 -1.17552 0
M  V30 1709 O 173.098 -3.42896 -2.2912 0
M  V30 1710 H 172.439 -0.648704 -0.1417 0
M  V30 1711 H 174.969 -2.03679 0.193961 0
M  V30 1712 H 174.979 -3.78886 -1.51357 0
M  V30 1713 H 173.654 -4.1382 -0.415445 0
M  V30 1714 H 172.231 -3.1672 -1.96832 0
M  V30 1715 N 174.416 0.165178 -1.56732 0
M  V30 1716 C 175.644 0.896218 -1.86482 0
M  V30 1717 C 176.059 1.75555 -0.694675 0
M  V30 1718 O 175.416 1.79379 0.33607 0
M  V30 1719 C 175.467 1.76792 -3.1532 0
M  V30 1720 O 175.188 0.943239 -4.27825 0
M  V30 1721 C 176.689 2.6081 -3.58459 0
M  V30 1722 H 173.909 0.260064 -0.618553 0
M  V30 1723 H 176.453 0.163428 -2.03846 0
M  V30 1724 H 174.608 2.45398 -2.99764 0
M  V30 1725 H 175.022 1.53998 -5.01383 0
M  V30 1726 H 176.496 3.17579 -4.51495 0
M  V30 1727 H 176.973 3.35977 -2.82872 0
M  V30 1728 H 177.579 1.97526 -3.76648 0
M  V30 1729 N 175.894 1.51508 0.433938 0
M  V30 1730 C 177.122 1.68157 1.20543 0
M  V30 1731 C 177.537 0.380362 1.84929 0
M  V30 1732 O 176.894 -0.641446 1.70856 0
M  V30 1733 C 176.945 2.79965 2.28696 0
M  V30 1734 O 176.666 4.05045 1.66943 0
M  V30 1735 C 178.167 3.07912 3.18912 0
M  V30 1736 H 175.387 0.56421 0.363191 0
M  V30 1737 H 177.931 1.97941 0.513754 0
M  V30 1738 H 176.086 2.5277 2.93574 0
M  V30 1739 H 176.5 4.67165 2.38448 0
M  V30 1740 H 177.974 3.89719 3.90926 0
M  V30 1741 H 178.451 2.20456 3.79863 0
M  V30 1742 H 179.057 3.36779 2.59731 0
M  V30 1743 N 177.372 -0.689602 1.41712 0
M  V30 1744 C 178.335 -1.78521 1.43746 0
M  V30 1745 C 179.335 -1.57436 0.327191 0
M  V30 1746 O 180.525 -1.64 0.587348 0
M  V30 1747 C 177.657 -3.16971 1.25467 0
M  V30 1748 H 178.85 -1.78108 2.41283 0
M  V30 1749 H 176.403 -0.89781 1.27942 0
M  V30 1750 H 177.138 -3.23019 0.287948 0
M  V30 1751 H 176.923 -3.33678 2.05917 0
M  V30 1752 H 178.413 -3.96935 1.2974 0
M  V30 1753 N 178.85 -1.27639 -0.924453 0
M  V30 1754 C 179.813 -1.10681 -2.00705 0
M  V30 1755 C 180.813 -0.0497823 -1.60723 0
M  V30 1756 O 182.003 -0.294654 -1.7169 0
M  V30 1757 C 179.135 -0.687164 -3.33902 0
M  V30 1758 H 180.328 -2.06817 -2.17179 0
M  V30 1759 H 177.881 -1.10473 -1.10569 0
M  V30 1760 H 178.616 0.275439 -3.23128 0
M  V30 1761 H 178.401 -1.45061 -3.6428 0
M  V30 1762 H 179.891 -0.590853 -4.13399 0
M  V30 1763 N 180.328 1.1314 -1.09713 0
M  V30 1764 C 181.574 1.84757 -0.836224 0
M  V30 1765 C 181.907 1.8347 0.636598 0
M  V30 1766 O 181.182 1.27491 1.46889 0
M  V30 1767 C 181.465 3.32782 -1.37578 0
M  V30 1768 C 181.318 3.42567 -2.91493 0
M  V30 1769 C 182.637 4.28307 -1.01198 0
M  V30 1770 H 179.756 0.67082 -0.305236 0
M  V30 1771 H 182.398 1.3278 -1.35903 0
M  V30 1772 H 180.548 3.77177 -0.931097 0
M  V30 1773 H 182.22 3.06862 -3.44432 0
M  V30 1774 H 180.463 2.83349 -3.28475 0
M  V30 1775 H 181.134 4.46674 -3.24324 0
M  V30 1776 H 183.61 3.91999 -1.39556 0
M  V30 1777 H 182.486 5.30307 -1.41653 0
M  V30 1778 H 182.747 4.42029 0.0794833 0
M  V30 1779 N 181.806 0.884767 1.30421 0
M  V30 1780 C 183.031 0.517288 2.00845 0
M  V30 1781 C 183.456 -0.886779 1.65885 0
M  V30 1782 O 182.814 -1.58768 0.875354 0
M  V30 1783 C 182.862 0.698994 3.5376 0
M  V30 1784 O 181.966 -0.255208 4.1161 0
M  V30 1785 H 181.307 0.203872 0.631927 0
M  V30 1786 H 183.837 1.19225 1.66272 0
M  V30 1787 H 183.847 0.597912 4.03595 0
M  V30 1788 H 182.522 1.72271 3.78544 0
M  V30 1789 H 181.099 -0.10784 3.72744 0
M  V30 1790 N 183.284 -1.43765 0.645699 0
M  V30 1791 C 184.247 -2.29163 -0.0409488 0
M  V30 1792 C 185.247 -1.41813 -0.757996 0
M  V30 1793 O 186.437 -1.63527 -0.600382 0
M  V30 1794 C 183.569 -3.23716 -1.06869 0
M  V30 1795 H 184.762 -2.91366 0.710345 0
M  V30 1796 H 182.315 -1.5092 0.406547 0
M  V30 1797 H 183.05 -2.66393 -1.84947 0
M  V30 1798 H 182.835 -3.88105 -0.558277 0
M  V30 1799 H 184.325 -3.87831 -1.54845 0
M  V30 1800 N 184.763 -0.387143 -1.52771 0
M  V30 1801 C 185.673 0.456442 -2.30117 0
M  V30 1802 C 186.689 1.07342 -1.36944 0
M  V30 1803 O 187.865 1.07971 -1.70013 0
M  V30 1804 C 184.93 1.56957 -3.09136 0
M  V30 1805 C 183.991 0.977916 -4.18014 0
M  V30 1806 C 183.224 2.038 -4.93256 0
M  V30 1807 O 183.447 3.25271 -4.68567 0
M  V30 1808 O 182.381 1.6565 -5.78657 0
M  V30 1809 H 186.207 -0.17359 -3.03203 0
M  V30 1810 H 183.792 -0.150919 -1.48636 0
M  V30 1811 H 185.674 2.21628 -3.58412 0
M  V30 1812 H 184.349 2.18461 -2.38865 0
M  V30 1813 H 183.256 0.294525 -3.72939 0
M  V30 1814 H 184.589 0.407128 -4.90513 0
M  V30 1815 N 186.241 1.57166 -0.116904 0
M  V30 1816 C 187.173 2.12271 0.864507 0
M  V30 1817 C 188.186 1.06494 1.23138 0
M  V30 1818 O 189.375 1.33873 1.18069 0
M  V30 1819 C 186.475 2.60564 2.16702 0
M  V30 1820 C 185.648 3.90416 1.97216 0
M  V30 1821 C 184.707 4.24329 3.11178 0
M  V30 1822 O 183.733 4.93182 2.84184 0
M  V30 1823 N 184.935 3.8148 4.37554 0
M  V30 1824 H 187.7 2.97102 0.393726 0
M  V30 1825 H 185.261 1.61759 0.0675805 0
M  V30 1826 H 187.253 2.80282 2.91932 0
M  V30 1827 H 185.823 1.80623 2.55135 0
M  V30 1828 H 185.043 3.79627 1.06192 0
M  V30 1829 H 186.331 4.75327 1.81499 0
M  V30 1830 H 185.729 3.25943 4.62361 0
M  V30 1831 H 184.286 4.06311 5.09661 0
M  V30 1832 N 187.719 -0.156864 1.56817 0
M  V30 1833 C 188.965 -0.872416 1.83076 0
M  V30 1834 C 189.298 -1.81261 0.697001 0
M  V30 1835 O 188.573 -1.92171 -0.30008 0
M  V30 1836 C 188.856 -1.65551 3.19789 0
M  V30 1837 C 188.709 -0.737467 4.43713 0
M  V30 1838 C 190.028 -2.62012 3.53606 0
M  V30 1839 H 187.147 -0.315715 0.665953 0
M  V30 1840 H 189.789 -0.138004 1.89498 0
M  V30 1841 H 187.939 -2.28159 3.14445 0
M  V30 1842 H 189.611 -0.123143 4.61136 0
M  V30 1843 H 187.854 -0.0464067 4.33775 0
M  V30 1844 H 188.525 -1.32122 5.35955 0
M  V30 1845 H 191.001 -2.09525 3.59497 0
M  V30 1846 H 189.877 -3.13861 4.50314 0
M  V30 1847 H 190.138 -3.42902 2.79053 0
M  V30 1848 N 189.197 -1.51736 -0.425897 0
M  V30 1849 C 190.127 -1.76827 -1.52494 0
M  V30 1850 C 191.108 -0.618524 -1.58456 0
M  V30 1851 O 192.293 -0.862416 -1.74 0
M  V30 1852 C 189.423 -1.90374 -2.90474 0
M  V30 1853 C 188.377 -3.0588 -2.99369 0
M  V30 1854 C 187.703 -3.04625 -4.3944 0
M  V30 1855 C 189.003 -4.45644 -2.72394 0
M  V30 1856 H 190.697 -2.68855 -1.31748 0
M  V30 1857 H 188.243 -1.29372 -0.632362 0
M  V30 1858 H 190.196 -2.0651 -3.6733 0
M  V30 1859 H 188.92 -0.95004 -3.12477 0
M  V30 1860 H 187.579 -2.89467 -2.24954 0
M  V30 1861 H 187.227 -2.0701 -4.58428 0
M  V30 1862 H 186.927 -3.82195 -4.46319 0
M  V30 1863 H 188.451 -3.22869 -5.18255 0
M  V30 1864 H 189.865 -4.62348 -3.38979 0
M  V30 1865 H 188.262 -5.25006 -2.9067 0
M  V30 1866 H 189.332 -4.54893 -1.67929 0
M  V30 1867 N 190.675 0.682077 -1.42076 0
M  V30 1868 C 191.638 1.77756 -1.44691 0
M  V30 1869 C 192.638 1.5726 -0.335535 0
M  V30 1870 O 193.828 1.63686 -0.596037 0
M  V30 1871 C 190.96 3.16301 -1.27146 0
M  V30 1872 H 192.153 1.76826 -2.42224 0
M  V30 1873 H 189.706 0.891012 -1.28416 0
M  V30 1874 H 190.441 3.22862 -0.305075 0
M  V30 1875 H 190.226 3.32581 -2.07683 0
M  V30 1876 H 191.716 3.96241 -1.31843 0
M  V30 1877 N 192.153 1.28127 0.917671 0
M  V30 1878 C 193.085 1.07517 2.02417 0
M  V30 1879 C 194.098 0.0281099 1.62776 0
M  V30 1880 O 195.287 0.270748 1.76435 0
M  V30 1881 C 192.387 0.610957 3.33347 0
M  V30 1882 C 191.56 1.73255 4.01624 0
M  V30 1883 C 190.619 1.26238 5.10833 0
M  V30 1884 O 189.645 1.96389 5.34247 0
M  V30 1885 N 190.847 0.123448 5.80369 0
M  V30 1886 H 193.612 2.02806 2.20658 0
M  V30 1887 H 191.173 1.19827 1.08871 0
M  V30 1888 H 193.165 0.280101 4.0373 0
M  V30 1889 H 191.735 -0.24898 3.11607 0
M  V30 1890 H 190.955 2.23319 3.24842 0
M  V30 1891 H 192.243 2.48503 4.43986 0
M  V30 1892 H 191.641 -0.461847 5.63812 0
M  V30 1893 H 190.198 -0.148158 6.51632 0
M  V30 1894 N 193.631 -1.12557 1.10312 0
M  V30 1895 C 194.594 -2.16434 0.75424 0
M  V30 1896 C 195.594 -1.59278 -0.220685 0
M  V30 1897 O 196.784 -1.742 0.00230591 0
M  V30 1898 C 193.916 -3.40699 0.116987 0
M  V30 1899 H 195.109 -2.48811 1.67431 0
M  V30 1900 H 192.662 -1.27542 0.903475 0
M  V30 1901 H 193.397 -3.13921 -0.813877 0
M  V30 1902 H 193.182 -3.83459 0.818613 0
M  V30 1903 H 194.672 -4.17451 -0.111387 0
M  V30 1904 N 195.109 -0.891671 -1.2995 0
M  V30 1905 C 196.056 -0.361736 -2.27948 0
M  V30 1906 C 197.026 0.551761 -1.56668 0
M  V30 1907 O 198.211 0.478736 -1.84696 0
M  V30 1908 C 195.351 0.411825 -3.42634 0
M  V30 1909 C 194.464 -0.531651 -4.28716 0
M  V30 1910 C 193.599 0.258167 -5.30572 0
M  V30 1911 C 192.638 -0.680349 -6.08307 0
M  V30 1912 N 191.775 0.0745613 -7.0206 0
M  V30 1913 H 196.615 -1.20254 -2.72659 0
M  V30 1914 H 194.152 -0.604352 -1.34112 0
M  V30 1915 H 196.11 0.876304 -4.07893 0
M  V30 1916 H 194.74 1.21715 -2.98974 0
M  V30 1917 H 193.792 -1.11463 -3.63703 0
M  V30 1918 H 195.104 -1.25038 -4.82874 0
M  V30 1919 H 194.258 0.784204 -6.0161 0
M  V30 1920 H 192.997 1.01008 -4.77126 0
M  V30 1921 H 192.002 -1.21796 -5.3614 0
M  V30 1922 H 193.227 -1.43145 -6.63842 0
M  V30 1923 H 191.173 0.808883 -6.50994 0
M  V30 1924 H 191.09 -0.584409 -7.53738 0
M  V30 1925 H 192.358 0.581123 -7.77331 0
M  V30 1926 N 196.587 1.43421 -0.653314 0
M  V30 1927 C 197.812 2.06678 -0.172846 0
M  V30 1928 C 198.237 1.48648 1.15262 0
M  V30 1929 O 197.595 0.596457 1.71208 0
M  V30 1930 C 197.643 3.60474 -0.0953184 0
M  V30 1931 O 196.747 4.01487 0.942442 0
M  V30 1932 H 196.088 0.657181 -0.0949155 0
M  V30 1933 H 198.618 1.83925 -0.896265 0
M  V30 1934 H 198.628 4.07905 0.0879728 0
M  V30 1935 H 197.303 4.02088 -1.06291 0
M  V30 1936 H 195.88 3.65646 0.731932 0
M  V30 1937 N 198.065 0.39524 1.52563 0
M  V30 1938 C 198.995 -0.428384 2.29537 0
M  V30 1939 C 199.976 -1.05831 1.33169 0
M  V30 1940 O 201.161 -1.06995 1.62067 0
M  V30 1941 C 198.291 -1.55274 3.10656 0
M  V30 1942 C 197.245 -1.04855 4.14957 0
M  V30 1943 C 196.571 -2.26543 4.84337 0
M  V30 1944 C 197.871 -0.112324 5.22179 0
M  V30 1945 H 199.565 0.213867 2.98635 0
M  V30 1946 H 197.111 0.104298 1.43622 0
M  V30 1947 H 199.064 -2.1358 3.63265 0
M  V30 1948 H 197.788 -2.22266 2.39302 0
M  V30 1949 H 196.447 -0.487985 3.63338 0
M  V30 1950 H 196.095 -2.92059 4.09525 0
M  V30 1951 H 195.795 -1.93466 5.54837 0
M  V30 1952 H 197.319 -2.85481 5.39753 0
M  V30 1953 H 198.733 -0.603752 5.70112 0
M  V30 1954 H 197.13 0.128968 5.99961 0
M  V30 1955 H 198.2 0.837052 4.77621 0
M  V30 1956 N 199.544 -1.57102 0.125237 0
M  V30 1957 C 200.491 -2.15641 -0.822655 0
M  V30 1958 C 201.461 -1.08313 -1.25927 0
M  V30 1959 O 202.646 -1.36251 -1.33567 0
M  V30 1960 C 199.786 -2.76504 -2.06494 0
M  V30 1961 C 198.899 -3.98158 -1.67612 0
M  V30 1962 C 198.034 -4.47088 -2.86854 0
M  V30 1963 C 197.073 -5.6126 -2.44242 0
M  V30 1964 N 196.21 -6.04905 -3.56419 0
M  V30 1965 H 201.05 -2.96313 -0.316625 0
M  V30 1966 H 198.587 -1.46388 -0.144588 0
M  V30 1967 H 200.545 -3.09925 -2.79289 0
M  V30 1968 H 199.175 -1.98512 -2.54545 0
M  V30 1969 H 198.227 -3.70858 -0.846661 0
M  V30 1970 H 199.539 -4.80934 -1.32301 0
M  V30 1971 H 198.693 -4.82451 -3.67867 0
M  V30 1972 H 197.432 -3.63275 -3.25396 0
M  V30 1973 H 196.437 -5.25495 -1.61663 0
M  V30 1974 H 197.662 -6.46843 -2.0681 0
M  V30 1975 H 195.608 -5.24032 -3.94623 0
M  V30 1976 H 195.525 -6.82552 -3.25051 0
M  V30 1977 H 196.793 -6.44907 -4.37853 0
M  V30 1978 N 201.022 0.148545 -1.56898 0
M  V30 1979 C 201.985 1.16736 -1.97244 0
M  V30 1980 C 202.985 1.35947 -0.858777 0
M  V30 1981 O 204.175 1.32966 -1.12542 0
M  V30 1982 C 201.307 2.52798 -2.28705 0
M  V30 1983 H 202.5 0.821279 -2.88435 0
M  V30 1984 H 200.053 0.391831 -1.51309 0
M  V30 1985 H 200.788 2.92381 -1.403 0
M  V30 1986 H 200.573 2.40216 -3.09901 0
M  V30 1987 H 202.063 3.26179 -2.60762 0
M  V30 1988 N 202.5 1.5196 0.417844 0
M  V30 1989 C 203.432 1.70895 1.52733 0
M  V30 1990 C 204.445 0.589405 1.51756 0
M  V30 1991 O 205.634 0.864312 1.56179 0
M  V30 1992 C 202.734 1.72627 2.91639 0
M  V30 1993 C 201.907 3.01479 3.16905 0
M  V30 1994 C 200.966 2.95139 4.35637 0
M  V30 1995 O 199.992 3.69059 4.3334 0
M  V30 1996 N 201.194 2.12328 5.40275 0
M  V30 1997 H 203.959 2.66612 1.36888 0
M  V30 1998 H 201.52 1.50089 0.607037 0
M  V30 1999 H 203.512 1.65928 3.6912 0
M  V30 2000 H 202.082 0.844216 3.00985 0
M  V30 2001 H 201.302 3.21895 2.27546 0
M  V30 2002 H 202.59 3.86736 3.30625 0
M  V30 2003 H 201.988 1.51685 5.44985 0
M  V30 2004 H 200.545 2.11494 6.16534 0
M  V30 2005 N 203.978 -0.674533 1.42435 0
M  V30 2006 C 205.226 -1.43175 1.42637 0
M  V30 2007 C 205.547 -1.94951 0.0438992 0
M  V30 2008 O 204.817 -1.7308 -0.917607 0
M  V30 2009 H 203.397 -0.531307 0.525092 0
M  V30 2010 H 206.059 -0.797006 1.77859 0
M  V30 2011 H 205.155 -2.28463 2.12629 0
M  V30 2012 N 205.456 -1.28612 -0.910864 0
M  V30 2013 C 206.872 -1.06381 -1.18976 0
M  V30 2014 C 207.072 0.191998 -2.00583 0
M  V30 2015 O 206.128 0.892869 -2.36187 0
M  V30 2016 C 207.441 -2.31295 -1.92154 0
M  V30 2017 C 208.989 -2.36503 -2.05025 0
M  V30 2018 C 209.464 -3.61191 -2.81612 0
M  V30 2019 N 210.955 -3.61847 -2.89172 0
M  V30 2020 C 211.69 -4.55004 -3.4894 0
M  V30 2021 N 211.186 -5.58482 -4.09963 0
M  V30 2022 N 212.979 -4.42594 -3.46506 0
M  V30 2023 H 205.13 -2.09221 -0.366094 0
M  V30 2024 H 207.393 -0.921003 -0.224629 0
M  V30 2025 H 207.099 -3.228 -1.39618 0
M  V30 2026 H 206.973 -2.37934 -2.9269 0
M  V30 2027 H 209.36 -1.45494 -2.5674 0
M  V30 2028 H 209.441 -2.33857 -1.03657 0
M  V30 2029 H 209.085 -4.52545 -2.30576 0
M  V30 2030 H 209.015 -3.61092 -3.83302 0
M  V30 2031 H 211.506 -2.87022 -2.45819 0
M  V30 2032 H 211.819 -6.25704 -4.53557 0
M  V30 2033 H 210.164 -5.62305 -4.08459 0
M  V30 2034 H 213.355 -3.60953 -2.98045 0
M  V30 2035 H 213.528 -5.15381 -3.92793 0
M  V30 2036 N 206.934 1.1197 -1.10907 0
M  V30 2037 C 207.881 2.17846 -0.762345 0
M  V30 2038 C 208.851 1.63995 0.263599 0
M  V30 2039 O 210.036 1.90273 0.141773 0
M  V30 2040 C 207.176 3.44487 -0.205651 0
M  V30 2041 C 206.289 4.12369 -1.28748 0
M  V30 2042 C 205.424 5.26674 -0.691919 0
M  V30 2043 C 204.463 5.86431 -1.75399 0
M  V30 2044 N 203.6 6.92142 -1.17833 0
M  V30 2045 H 208.44 2.46851 -1.6694 0
M  V30 2046 H 205.977 1.21188 -0.833776 0
M  V30 2047 H 207.935 4.16981 0.135037 0
M  V30 2048 H 206.565 3.15884 0.664613 0
M  V30 2049 H 205.617 3.38003 -1.74522 0
M  V30 2050 H 206.929 4.52844 -2.09125 0
M  V30 2051 H 206.083 6.05953 -0.300963 0
M  V30 2052 H 204.822 4.8749 0.143232 0
M  V30 2053 H 203.827 5.05835 -2.15432 0
M  V30 2054 H 205.052 6.27685 -2.59208 0
M  V30 2055 H 202.998 6.54985 -0.364725 0
M  V30 2056 H 202.915 7.31242 -1.91887 0
M  V30 2057 H 204.183 7.75237 -0.81408 0
M  V30 2058 N 208.412 0.89855 1.29475 0
M  V30 2059 C 209.64 0.539261 1.99749 0
M  V30 2060 C 210.055 -0.875716 1.67262 0
M  V30 2061 O 209.412 -1.57786 0.917049 0
M  V30 2062 C 209.463 0.72061 3.54245 0
M  V30 2063 O 209.184 2.07989 3.8558 0
M  V30 2064 C 210.685 0.366118 4.41786 0
M  V30 2065 H 207.905 0.207047 0.638258 0
M  V30 2066 H 210.449 1.20758 1.65039 0
M  V30 2067 H 208.604 0.0994862 3.87272 0
M  V30 2068 H 209.018 2.10841 4.80257 0
M  V30 2069 H 210.492 0.543848 5.49314 0
M  V30 2070 H 210.969 -0.696763 4.33638 0
M  V30 2071 H 211.575 0.964135 4.14228 0
M  V30 2072 N 209.89 -1.43072 0.660911 0
M  V30 2073 C 210.8 -2.34585 -0.0264163 0
M  V30 2074 C 211.816 -1.54316 -0.803898 0
M  V30 2075 O 212.992 -1.86939 -0.749391 0
M  V30 2076 C 210.057 -3.32689 -0.975639 0
M  V30 2077 C 209.118 -4.2886 -0.194236 0
M  V30 2078 C 208.351 -5.22278 -1.09825 0
M  V30 2079 O 208.574 -5.20299 -2.33763 0
M  V30 2080 O 207.508 -5.99228 -0.566513 0
M  V30 2081 H 211.334 -2.94869 0.727034 0
M  V30 2082 H 208.919 -1.43342 0.42111 0
M  V30 2083 H 210.801 -3.92995 -1.52094 0
M  V30 2084 H 209.476 -2.74898 -1.70918 0
M  V30 2085 H 208.383 -3.72011 0.394835 0
M  V30 2086 H 209.716 -4.89655 0.499899 0
M  V30 2087 N 211.368 -0.403325 -1.52352 0
M  V30 2088 C 212.316 0.439752 -2.28405 0
M  V30 2089 C 213.31 1.05089 -1.32863 0
M  V30 2090 O 214.516 0.989759 -1.50345 0
M  V30 2091 H 210.891 0.160587 -0.734653 0
M  V30 2092 H 212.862 -0.222983 -2.97566 0
M  V30 2093 C 211.611 1.54736 -3.11371 0
M  V30 2094 H 210.934 1.08643 -3.84755 0
M  V30 2095 H 212.374 2.1112 -3.67701 0
M  V30 2096 C 210.833 2.51141 -2.24566 0
M  V30 2097 O 211.363 3.54887 -1.88196 0
M  V30 2098 N 209.569 2.21213 -1.8845 0
M  V30 2099 H 209.116 1.36878 -2.18225 0
M  V30 2100 H 209.074 2.85963 -1.30662 0
M  V30 2101 N 212.846 1.57033 -0.133567 0
M  V30 2102 C 214.123 1.87256 0.56522 0
M  V30 2103 C 214.503 1.03726 1.83859 0
M  V30 2104 O 213.851 0.120247 2.28183 0
M  V30 2105 C 214.061 3.3865 0.843636 0
M  V30 2106 C 215.409 4.07574 1.19032 0
M  V30 2107 O 216.433 3.43752 0.933429 0
M  V30 2108 O 215.292 5.20259 1.67312 0
M  V30 2109 H 212.386 0.775678 0.286796 0
M  V30 2110 H 214.932 1.68855 -0.169168 0
M  V30 2111 H 213.704 3.91257 -0.0581149 0
M  V30 2112 H 213.327 3.62532 1.63268 0
M  V30 2113 N 214.325 -0.140222 1.56975 0
M  V30 2114 C 215.272 -1.17292 1.98774 0
M  V30 2115 C 216.242 -1.4232 0.856408 0
M  V30 2116 O 217.427 -1.54541 1.119 0
M  V30 2117 C 214.567 -2.49973 2.37923 0
M  V30 2118 C 213.68 -2.32062 3.64378 0
M  V30 2119 C 212.815 -3.57825 3.926 0
M  V30 2120 C 211.854 -3.3498 5.12303 0
M  V30 2121 N 210.991 -4.52891 5.36502 0
M  V30 2122 H 215.831 -0.809472 2.86795 0
M  V30 2123 H 213.368 -0.388237 1.41884 0
M  V30 2124 H 215.326 -3.27346 2.58652 0
M  V30 2125 H 213.956 -2.84252 1.52972 0
M  V30 2126 H 213.008 -1.45711 3.51387 0
M  V30 2127 H 214.32 -2.11145 4.51906 0
M  V30 2128 H 213.474 -4.43624 4.13863 0
M  V30 2129 H 212.213 -3.81753 3.03506 0
M  V30 2130 H 211.218 -2.4757 4.90906 0
M  V30 2131 H 212.443 -3.12444 6.02956 0
M  V30 2132 H 210.389 -4.76979 4.50363 0
M  V30 2133 H 210.306 -4.35001 6.18312 0
M  V30 2134 H 211.574 -5.39884 5.62268 0
M  V30 2135 N 215.803 -1.52179 -0.40978 0
M  V30 2136 C 217.049 -1.66453 -1.15851 0
M  V30 2137 C 217.382 -0.392972 -1.90182 0
M  V30 2138 O 216.657 0.608579 -1.84734 0
M  V30 2139 C 216.94 -2.88612 -2.15349 0
M  V30 2140 C 216.793 -4.25815 -1.44918 0
M  V30 2141 C 218.112 -3.06294 -3.16026 0
M  V30 2142 H 215.231 -0.60575 -0.419805 0
M  V30 2143 H 217.873 -1.84732 -0.444314 0
M  V30 2144 H 216.023 -2.73158 -2.76255 0
M  V30 2145 H 217.695 -4.52995 -0.871365 0
M  V30 2146 H 215.938 -4.27247 -0.751159 0
M  V30 2147 H 216.609 -5.07337 -2.17516 0
M  V30 2148 H 219.085 -3.20641 -2.65195 0
M  V30 2149 H 217.961 -3.93283 -3.8291 0
M  V30 2150 H 218.222 -2.19579 -3.83715 0
M  V30 2151 N 217.281 0.66697 -1.42791 0
M  V30 2152 C 218.191 1.80962 -1.49299 0
M  V30 2153 C 219.207 1.69775 -0.381108 0
M  V30 2154 O 220.383 1.91188 -0.633188 0
M  V30 2155 C 217.448 3.17156 -1.40045 0
M  V30 2156 C 216.509 3.40242 -2.6179 0
M  V30 2157 C 215.742 4.69939 -2.52969 0
M  V30 2158 O 215.965 5.48372 -1.56985 0
M  V30 2159 O 214.899 4.94441 -3.43237 0
M  V30 2160 H 218.725 1.78427 -2.45759 0
M  V30 2161 H 216.31 0.823713 -1.24641 0
M  V30 2162 H 218.192 3.98413 -1.37276 0
M  V30 2163 H 216.867 3.20312 -0.467138 0
M  V30 2164 H 215.774 2.58802 -2.70134 0
M  V30 2165 H 217.107 3.41923 -3.54047 0
M  V30 2166 N 218.759 1.29093 0.90403 0
M  V30 2167 C 219.689 1.16401 2.02418 0
M  V30 2168 C 220.67 0.0593085 1.69997 0
M  V30 2169 O 221.855 0.238021 1.92736 0
M  V30 2170 C 218.985 0.835233 3.37107 0
M  V30 2171 C 217.939 1.89578 3.83724 0
M  V30 2172 C 217.265 1.42041 5.15489 0
M  V30 2173 C 218.565 3.30394 4.04521 0
M  V30 2174 H 220.259 2.10109 2.13295 0
M  V30 2175 H 217.805 1.01157 1.02486 0
M  V30 2176 H 219.758 0.733169 4.14973 0
M  V30 2177 H 218.482 -0.137543 3.2631 0
M  V30 2178 H 217.141 1.98715 3.08071 0
M  V30 2179 H 216.789 0.436426 5.01103 0
M  V30 2180 H 216.489 2.12964 5.4765 0
M  V30 2181 H 218.013 1.33176 5.959 0
M  V30 2182 H 219.427 3.24123 4.72882 0
M  V30 2183 H 217.824 3.99237 4.48029 0
M  V30 2184 H 218.894 3.73692 3.09002 0
M  V30 2185 N 220.237 -1.11381 1.11499 0
M  V30 2186 C 221.483 -1.83403 0.865512 0
M  V30 2187 C 221.816 -1.84459 -0.607329 0
M  V30 2188 O 221.091 -1.29811 -1.44842 0
M  V30 2189 C 221.374 -3.30552 1.42855 0
M  V30 2190 C 221.227 -3.37886 2.96906 0
M  V30 2191 C 222.546 -4.26643 1.08 0
M  V30 2192 H 219.665 -0.665879 0.31587 0
M  V30 2193 H 222.307 -1.30601 1.37998 0
M  V30 2194 H 220.457 -3.75648 0.990985 0
M  V30 2195 H 222.129 -3.01343 3.49271 0
M  V30 2196 H 220.372 -2.78088 3.32941 0
M  V30 2197 H 221.043 -4.41458 3.31389 0
M  V30 2198 H 223.519 -3.89729 1.45775 0
M  V30 2199 H 222.395 -5.27986 1.50072 0
M  V30 2200 H 222.656 -4.42099 -0.00915037 0
M  V30 2201 N 221.715 -0.905404 -1.28997 0
M  V30 2202 C 222.964 -0.530191 -1.94607 0
M  V30 2203 C 223.277 0.929185 -1.72121 0
M  V30 2204 O 224.483 1.41218 -2.31883 0
M  V30 2205 C 222.939 -0.897333 -3.48534 0
M  V30 2206 C 222.547 -2.37587 -3.79811 0
M  V30 2207 C 224.291 -0.592304 -4.20347 0
M  V30 2208 C 222.198 -2.68357 -5.27009 0
M  V30 2209 H 221.128 -0.194558 -0.728466 0
M  V30 2210 H 223.779 -1.10318 -1.46636 0
M  V30 2211 H 222.161 -0.253214 -3.9519 0
M  V30 2212 H 223.335 -3.06602 -3.43994 0
M  V30 2213 H 221.65 -2.6505 -3.2115 0
M  V30 2214 H 224.247 -0.798975 -5.28697 0
M  V30 2215 H 224.59 0.469474 -4.13644 0
M  V30 2216 H 225.123 -1.19452 -3.79442 0
M  V30 2217 H 221.862 -3.73355 -5.38782 0
M  V30 2218 H 221.382 -2.03971 -5.64053 0
M  V30 2219 H 223.061 -2.54922 -5.94663 0
M  V30 2220 N 223.193 1.4272 -0.668489 0
M  V30 2221 C 224.609 1.55992 -0.33745 0
M  V30 2222 C 224.809 1.64933 1.15756 0
M  V30 2223 O 223.865 1.61278 1.94282 0
M  V30 2224 C 225.178 2.81314 -1.06222 0
M  V30 2225 C 226.726 2.95078 -1.04394 0
M  V30 2226 C 227.201 4.23252 -1.74991 0
M  V30 2227 N 228.692 4.3015 -1.71829 0
M  V30 2228 C 229.427 5.28127 -2.23315 0
M  V30 2229 N 228.923 6.32293 -2.83156 0
M  V30 2230 N 230.716 5.19882 -2.13726 0
M  V30 2231 H 222.867 1.3516 -1.63846 0
M  V30 2232 H 225.13 0.650174 -0.689912 0
M  V30 2233 H 224.836 2.80823 -2.11734 0
M  V30 2234 H 224.71 3.72012 -0.62344 0
M  V30 2235 H 227.097 2.951 0.0028244 0
M  V30 2236 H 227.178 2.05627 -1.52155 0
M  V30 2237 H 226.822 4.2399 -2.79633 0
M  V30 2238 H 226.752 5.11626 -1.24685 0
M  V30 2239 H 229.243 3.55499 -1.28175 0
M  V30 2240 H 229.556 7.03398 -3.20079 0
M  V30 2241 H 227.901 6.32873 -2.87223 0
M  V30 2242 H 231.092 4.37423 -1.66669 0
M  V30 2243 H 231.265 5.96077 -2.54158 0
M  V30 2244 N 224.671 0.411399 1.52136 0
M  V30 2245 C 225.601 -0.404015 2.29978 0
M  V30 2246 C 226.582 -1.04412 1.34284 0
M  V30 2247 O 227.767 -1.0527 1.63192 0
M  V30 2248 C 224.897 -1.5197 3.12286 0
M  V30 2249 C 223.851 -1.00448 4.16046 0
M  V30 2250 C 223.177 -2.21393 4.86712 0
M  V30 2251 C 224.477 -0.0569336 5.22269 0
M  V30 2252 H 226.171 0.245529 2.98392 0
M  V30 2253 H 223.717 0.119525 1.43503 0
M  V30 2254 H 225.67 -2.09715 3.6551 0
M  V30 2255 H 224.394 -2.19716 2.41646 0
M  V30 2256 H 223.053 -0.449421 3.63835 0
M  V30 2257 H 222.701 -2.87699 4.12599 0
M  V30 2258 H 222.401 -1.87571 5.56858 0
M  V30 2259 H 223.925 -2.7974 5.4275 0
M  V30 2260 H 225.339 -0.54325 5.7072 0
M  V30 2261 H 223.736 0.192594 5.99791 0
M  V30 2262 H 224.806 0.887663 4.76706 0
M  V30 2263 N 226.149 -1.5696 0.141893 0
M  V30 2264 C 227.397 -1.95573 -0.509484 0
M  V30 2265 C 227.718 -1.02746 -1.65736 0
M  V30 2266 O 226.988 -0.0880311 -1.95702 0
M  V30 2267 H 225.568 -0.722115 -0.191205 0
M  V30 2268 H 228.23 -1.93697 0.216196 0
M  V30 2269 H 227.326 -2.99171 -0.889 0
M  V30 2270 N 227.627 0.131896 -1.57047 0
M  V30 2271 C 228.537 1.1815 -2.02676 0
M  V30 2272 C 229.553 1.46113 -0.944824 0
M  V30 2273 O 230.729 1.57485 -1.25541 0
M  V30 2274 C 227.794 2.49139 -2.41103 0
M  V30 2275 C 226.855 2.28688 -3.63318 0
M  V30 2276 C 226.088 3.53431 -3.99903 0
M  V30 2277 O 226.311 4.60223 -3.36973 0
M  V30 2278 O 225.245 3.45198 -4.93074 0
M  V30 2279 H 229.071 0.824069 -2.92306 0
M  V30 2280 H 226.656 0.341745 -1.45439 0
M  V30 2281 H 228.538 3.26338 -2.66611 0
M  V30 2282 H 227.213 2.84382 -1.54624 0
M  V30 2283 H 226.12 1.4939 -3.42977 0
M  V30 2284 H 227.453 1.98355 -4.50462 0
M  V30 2285 N 229.106 1.52395 0.401703 0
M  V30 2286 C 230.054 1.7689 1.51039 0
M  V30 2287 C 231.048 0.636298 1.56996 0
M  V30 2288 O 232.254 0.818507 1.60314 0
M  V30 2289 H 228.629 0.559502 0.502456 0
M  V30 2290 H 230.6 2.69757 1.27568 0
M  V30 2291 C 229.349 1.94331 2.88324 0
M  V30 2292 H 228.672 2.80905 2.84486 0
M  V30 2293 H 230.112 2.15466 3.65172 0
M  V30 2294 C 228.571 0.712396 3.29282 0
M  V30 2295 O 229.101 -0.116218 4.01532 0
M  V30 2296 N 227.307 0.546154 2.85422 0
M  V30 2297 H 226.854 1.22156 2.26794 0
M  V30 2298 H 226.812 -0.276113 3.13185 0
M  V30 2299 N 230.584 -0.659388 1.43143 0
M  V30 2300 C 231.532 -1.79374 1.4808 0
M  V30 2301 C 232.526 -1.65639 0.354988 0
M  V30 2302 O 233.732 -1.7206 0.528704 0
M  V30 2303 H 230.107 -0.591705 0.4641 0
M  V30 2304 H 232.078 -1.72329 2.43609 0
M  V30 2305 C 230.827 -3.17606 1.41499 0
M  V30 2306 H 230.15 -3.28809 2.27431 0
M  V30 2307 H 231.59 -3.96951 1.49015 0
M  V30 2308 C 230.049 -3.36642 0.131765 0
M  V30 2309 O 230.579 -3.93461 -0.809386 0
M  V30 2310 N 228.785 -2.90567 0.0439396 0
M  V30 2311 H 228.332 -2.44513 0.810619 0
M  V30 2312 H 228.29 -3.03681 -0.813969 0
M  V30 2313 N 232.062 -1.29571 -0.897171 0
M  V30 2314 C 233.311 -1.1706 -1.64256 0
M  V30 2315 C 233.624 0.276476 -1.93636 0
M  V30 2316 O 234.83 0.52294 -2.66416 0
M  V30 2317 C 233.286 -2.0475 -2.95982 0
M  V30 2318 C 232.894 -3.54295 -2.74187 0
M  V30 2319 C 234.638 -2.0097 -3.73914 0
M  V30 2320 C 232.545 -4.34081 -4.01656 0
M  V30 2321 H 231.475 -0.43452 -0.616205 0
M  V30 2322 H 234.126 -1.54229 -0.994268 0
M  V30 2323 H 232.508 -1.60452 -3.62038 0
M  V30 2324 H 233.682 -4.06662 -2.1671 0
M  V30 2325 H 231.997 -3.59773 -2.09648 0
M  V30 2326 H 234.594 -2.57838 -4.68427 0
M  V30 2327 H 234.937 -0.990273 -4.0435 0
M  V30 2328 H 235.47 -2.43325 -3.14703 0
M  V30 2329 H 232.209 -5.36671 -3.76384 0
M  V30 2330 H 231.729 -3.86483 -4.58684 0
M  V30 2331 H 233.408 -4.44877 -4.69781 0
M  V30 2332 N 233.54 1.10788 -1.12088 0
M  V30 2333 C 234.503 2.15207 -0.788577 0
M  V30 2334 C 235.503 1.59609 0.195317 0
M  V30 2335 O 236.693 1.74174 -0.0300193 0
M  V30 2336 C 233.825 3.4047 -0.171174 0
M  V30 2337 H 235.018 2.46116 -1.71368 0
M  V30 2338 H 232.571 1.26089 -0.923652 0
M  V30 2339 H 233.306 3.15176 0.763832 0
M  V30 2340 H 233.091 3.82109 -0.879514 0
M  V30 2341 H 234.581 4.17576 0.04496 0
M  V30 2342 N 235.018 0.912232 1.28515 0
M  V30 2343 C 235.95 0.35676 2.26406 0
M  V30 2344 C 236.963 -0.503933 1.54804 0
M  V30 2345 O 238.152 -0.319059 1.75625 0
M  V30 2346 C 235.252 -0.508825 3.35058 0
M  V30 2347 C 234.425 0.329007 4.36161 0
M  V30 2348 C 233.484 -0.471422 5.24084 0
M  V30 2349 O 232.51 0.115482 5.69083 0
M  V30 2350 N 233.712 -1.77479 5.52704 0
M  V30 2351 H 236.477 1.19818 2.74707 0
M  V30 2352 H 234.038 0.778022 1.4198 0
M  V30 2353 H 236.03 -1.051 3.90815 0
M  V30 2354 H 234.6 -1.25095 2.86478 0
M  V30 2355 H 233.82 1.05256 3.79888 0
M  V30 2356 H 235.108 0.90234 5.00735 0
M  V30 2357 H 234.506 -2.27417 5.17975 0
M  V30 2358 H 233.063 -2.26382 6.11224 0
M  V30 2359 N 236.496 -1.42363 0.676048 0
M  V30 2360 C 237.426 -2.33497 0.0124832 0
M  V30 2361 C 238.407 -1.50748 -0.787981 0
M  V30 2362 O 239.592 -1.79346 -0.744884 0
M  V30 2363 C 236.722 -3.34377 -0.938582 0
M  V30 2364 C 235.676 -4.27289 -0.246622 0
M  V30 2365 C 235.002 -5.18386 -1.31071 0
M  V30 2366 C 236.302 -5.14916 0.875125 0
M  V30 2367 H 237.996 -2.89233 0.773593 0
M  V30 2368 H 235.542 -1.39073 0.37346 0
M  V30 2369 H 237.495 -3.97044 -1.41188 0
M  V30 2370 H 236.219 -2.76947 -1.73113 0
M  V30 2371 H 234.878 -3.66018 0.206456 0
M  V30 2372 H 234.526 -4.57282 -2.09528 0
M  V30 2373 H 234.226 -5.81378 -0.852839 0
M  V30 2374 H 235.75 -5.83929 -1.78492 0
M  V30 2375 H 237.164 -5.71262 0.482983 0
M  V30 2376 H 235.561 -5.86747 1.25887 0
M  V30 2377 H 236.631 -4.53242 1.72335 0
M  V30 2378 N 237.974 -0.419461 -1.51915 0
M  V30 2379 C 239.22 0.153166 -2.02221 0
M  V30 2380 C 239.553 1.43907 -1.30401 0
M  V30 2381 O 238.828 1.90055 -0.413438 0
M  V30 2382 C 239.111 0.390291 -3.57979 0
M  V30 2383 C 238.964 -0.913014 -4.40436 0
M  V30 2384 C 240.283 1.16794 -4.2432 0
M  V30 2385 H 237.402 0.0541924 -0.735005 0
M  V30 2386 H 240.044 -0.554955 -1.81715 0
M  V30 2387 H 238.194 0.993491 -3.75582 0
M  V30 2388 H 239.866 -1.54882 -4.34522 0
M  V30 2389 H 238.109 -1.52168 -4.06236 0
M  V30 2390 H 238.78 -0.701361 -5.47526 0
M  V30 2391 H 241.256 0.657161 -4.10878 0
M  V30 2392 H 240.132 1.3026 -5.3322 0
M  V30 2393 H 240.393 2.19132 -3.83971 0
M  V30 2394 N 239.452 1.56882 -0.150215 0
M  V30 2395 C 240.682 2.00302 0.506213 0
M  V30 2396 C 241.09 1.02934 1.58749 0
M  V30 2397 O 240.433 0.0188384 1.8369 0
M  V30 2398 C 240.495 3.40156 1.16337 0
M  V30 2399 C 240.159 4.56439 0.226311 0
M  V30 2400 C 241.156 5.17012 -0.547265 0
M  V30 2401 C 238.841 5.02136 0.128279 0
M  V30 2402 C 240.835 6.21693 -1.40629 0
M  V30 2403 C 238.522 6.06672 -0.734345 0
M  V30 2404 C 239.52 6.6632 -1.50023 0
M  V30 2405 O 239.208 7.68831 -2.34848 0
M  V30 2406 H 238.94 0.662182 0.135984 0
M  V30 2407 H 241.494 2.03961 -0.242746 0
M  V30 2408 H 239.724 3.33346 1.96004 0
M  V30 2409 H 241.413 3.67663 1.71985 0
M  V30 2410 H 242.179 4.82603 -0.48158 0
M  V30 2411 H 238.058 4.55435 0.714157 0
M  V30 2412 H 241.602 6.68179 -2.00455 0
M  V30 2413 H 237.499 6.40507 -0.801309 0
M  V30 2414 H 238.267 7.86065 -2.28131 0
M  V30 2415 N 240.93 -0.123565 1.57115 0
M  V30 2416 C 241.878 -1.17082 2.00984 0
M  V30 2417 C 242.872 -1.43136 0.906009 0
M  V30 2418 O 244.078 -1.43152 1.09121 0
M  V30 2419 H 240.453 -0.394653 0.64012 0
M  V30 2420 H 242.424 -0.774292 2.88179 0
M  V30 2421 C 241.173 -2.49057 2.42623 0
M  V30 2422 H 240.496 -2.29846 3.27125 0
M  V30 2423 H 241.936 -3.20906 2.7712 0
M  V30 2424 C 240.395 -3.11305 1.28805 0
M  V30 2425 O 240.925 -3.97171 0.60153 0
M  V30 2426 N 239.131 -2.71111 1.04628 0
M  V30 2427 H 238.678 -2.01382 1.60634 0
M  V30 2428 H 238.636 -3.1309 0.286685 0
M  V30 2429 N 242.408 -1.52605 -0.393616 0
M  V30 2430 C 243.654 -1.67672 -1.14079 0
M  V30 2431 C 243.987 -0.413121 -1.89755 0
M  V30 2432 O 243.262 0.588952 -1.85369 0
M  V30 2433 C 243.545 -2.9088 -2.12276 0
M  V30 2434 C 243.398 -4.27329 -1.40394 0
M  V30 2435 C 244.717 -3.09628 -3.12759 0
M  V30 2436 H 241.836 -0.610168 -0.413356 0
M  V30 2437 H 244.478 -1.85193 -0.424696 0
M  V30 2438 H 242.628 -2.76073 -2.73342 0
M  V30 2439 H 244.3 -4.53894 -0.82327 0
M  V30 2440 H 242.543 -4.2802 -0.705801 0
M  V30 2441 H 243.214 -5.09615 -2.12123 0
M  V30 2442 H 245.69 -3.23436 -2.61779 0
M  V30 2443 H 244.566 -3.97322 -3.78717 0
M  V30 2444 H 244.827 -2.23637 -3.81365 0
M  V30 2445 N 243.887 0.651787 -1.4349 0
M  V30 2446 C 245.112 1.44434 -1.48841 0
M  V30 2447 C 245.537 1.8779 -0.107955 0
M  V30 2448 O 244.895 1.57464 0.898602 0
M  V30 2449 C 244.943 2.65458 -2.44059 0
M  V30 2450 O 244.047 3.64566 -1.92784 0
M  V30 2451 H 243.388 0.433005 -0.503391 0
M  V30 2452 H 245.918 0.797451 -1.88419 0
M  V30 2453 H 245.928 3.13255 -2.6141 0
M  V30 2454 H 244.603 2.33244 -3.4434 0
M  V30 2455 H 243.18 3.23716 -1.851 0
M  V30 2456 N 245.365 1.30045 0.890287 0
M  V30 2457 C 246.595 1.21296 1.67245 0
M  V30 2458 C 247.003 -0.227471 1.87828 0
M  V30 2459 O 246.346 -1.16296 1.422 0
M  V30 2460 C 246.408 1.86519 3.07329 0
M  V30 2461 C 246.072 3.35837 3.09939 0
M  V30 2462 C 247.069 4.31915 2.89389 0
M  V30 2463 C 244.754 3.77196 3.31706 0
M  V30 2464 C 246.748 5.67325 2.90552 0
M  V30 2465 C 244.435 5.12725 3.32499 0
M  V30 2466 C 245.433 6.076 3.11947 0
M  V30 2467 O 245.121 7.40655 3.12547 0
M  V30 2468 H 244.853 0.4211 0.528821 0
M  V30 2469 H 247.407 1.72111 1.12103 0
M  V30 2470 H 245.637 1.30228 3.64112 0
M  V30 2471 H 247.326 1.71963 3.67673 0
M  V30 2472 H 248.092 4.01294 2.72375 0
M  V30 2473 H 243.971 3.03796 3.4674 0
M  V30 2474 H 247.515 6.41354 2.74429 0
M  V30 2475 H 243.412 5.42988 3.49047 0
M  V30 2476 H 244.18 7.49577 3.28749 0
M  V30 2477 N 246.843 -1.10192 1.12674 0
M  V30 2478 C 247.773 -2.18652 0.819362 0
M  V30 2479 C 248.754 -1.68698 -0.217915 0
M  V30 2480 O 249.939 -1.94041 -0.0785581 0
M  V30 2481 C 247.069 -3.46202 0.27594 0
M  V30 2482 C 246.023 -4.09444 1.24656 0
M  V30 2483 C 245.349 -5.31725 0.563258 0
M  V30 2484 C 246.649 -4.52863 2.60217 0
M  V30 2485 H 248.343 -2.44622 1.72628 0
M  V30 2486 H 245.889 -1.17571 0.831451 0
M  V30 2487 H 247.842 -4.21372 0.0486149 0
M  V30 2488 H 246.566 -3.1973 -0.666331 0
M  V30 2489 H 245.225 -3.36284 1.45974 0
M  V30 2490 H 244.873 -5.0153 -0.384235 0
M  V30 2491 H 244.573 -5.74991 1.21075 0
M  V30 2492 H 246.097 -6.09624 0.34503 0
M  V30 2493 H 247.511 -5.19294 2.42913 0
M  V30 2494 H 245.908 -5.06986 3.21068 0
M  V30 2495 H 246.978 -3.65656 3.18471 0
M  V30 2496 N 248.321 -0.919034 -1.28029 0
M  V30 2497 C 249.57 -0.550802 -1.94034 0
M  V30 2498 C 249.883 0.910877 -1.73096 0
M  V30 2499 O 251.089 1.3875 -2.33368 0
M  V30 2500 C 249.545 -0.934249 -3.47563 0
M  V30 2501 C 249.153 -2.41602 -3.7727 0
M  V30 2502 C 250.897 -0.636854 -4.19696 0
M  V30 2503 C 248.804 -2.73932 -5.24133 0
M  V30 2504 H 247.734 -0.202273 -0.726362 0
M  V30 2505 H 250.385 -1.11867 -1.45458 0
M  V30 2506 H 248.767 -0.295115 -3.94899 0
M  V30 2507 H 249.941 -3.10233 -3.40723 0
M  V30 2508 H 248.256 -2.68441 -3.18321 0
M  V30 2509 H 250.853 -0.855005 -5.2782 0
M  V30 2510 H 251.196 0.425575 -4.14119 0
M  V30 2511 H 251.729 -1.23469 -3.78154 0
M  V30 2512 H 248.468 -3.79049 -5.34792 0
M  V30 2513 H 247.988 -2.09942 -5.61858 0
M  V30 2514 H 249.667 -2.61215 -5.91925 0
M  V30 2515 N 249.799 1.42003 -0.683588 0
M  V30 2516 C 251.21 1.84501 -0.285736 0
M  V30 2517 C 251.561 1.57213 1.17382 0
M  V30 2518 O 250.686 1.03642 1.89966 0
M  V30 2519 C 251.281 3.34912 -0.511821 0
M  V30 2520 C 249.84 3.76025 -0.168005 0
M  V30 2521 C 248.987 2.6551 -0.799983 0
M  V30 2522 H 251.938 1.31724 -0.885119 0
M  V30 2523 H 251.959 3.79784 0.233292 0
M  V30 2524 H 251.471 3.54741 -1.57418 0
M  V30 2525 H 249.572 3.61801 0.890567 0
M  V30 2526 H 249.685 4.75141 -0.614661 0
M  V30 2527 H 248.049 2.53654 -0.230568 0
M  V30 2528 H 248.832 2.8816 -1.86597 0
M  V30 2529 N 251.277 0.427512 1.51691 0
M  V30 2530 C 252.525 -0.141948 2.01601 0
M  V30 2531 C 252.846 -1.44067 1.31414 0
M  V30 2532 O 252.116 -1.90763 0.445658 0
M  V30 2533 H 250.696 -0.0554468 0.744939 0
M  V30 2534 H 253.358 0.567968 1.86441 0
M  V30 2535 H 252.454 -0.324913 3.10404 0
M  V30 2536 N 252.755 -1.56801 0.158532 0
M  V30 2537 C 253.665 -2.20916 -0.789518 0
M  V30 2538 C 254.681 -1.1969 -1.26294 0
M  V30 2539 O 255.857 -1.52308 -1.31773 0
M  V30 2540 C 252.922 -2.82727 -2.00665 0
M  V30 2541 C 251.983 -3.99114 -1.58134 0
M  V30 2542 C 251.216 -4.57968 -2.74045 0
M  V30 2543 O 251.439 -4.15704 -3.90572 0
M  V30 2544 O 250.373 -5.48047 -2.48855 0
M  V30 2545 H 254.199 -3.02464 -0.273681 0
M  V30 2546 H 251.784 -1.4924 -0.0690548 0
M  V30 2547 H 253.666 -3.21968 -2.71872 0
M  V30 2548 H 252.341 -2.04184 -2.51179 0
M  V30 2549 H 251.248 -3.64567 -0.839155 0
M  V30 2550 H 252.581 -4.79212 -1.12325 0
M  V30 2551 N 254.233 0.115231 -1.57178 0
M  V30 2552 C 255.481 0.820727 -1.84685 0
M  V30 2553 C 255.802 1.80237 -0.744279 0
M  V30 2554 O 255.072 1.94529 0.231375 0
M  V30 2555 H 253.652 0.306084 -0.681411 0
M  V30 2556 H 256.314 0.101656 -1.94635 0
M  V30 2557 H 255.41 1.36366 -2.80733 0
M  V30 2558 N 255.711 1.52812 0.385517 0
M  V30 2559 C 256.641 1.80808 1.47752 0
M  V30 2560 C 257.622 0.660318 1.5676 0
M  V30 2561 O 258.807 0.908246 1.71652 0
M  V30 2562 C 255.937 1.98008 2.85324 0
M  V30 2563 C 254.891 3.13709 2.91154 0
M  V30 2564 C 254.217 3.16169 4.31209 0
M  V30 2565 C 255.517 4.52709 2.60483 0
M  V30 2566 H 257.211 2.72253 1.24573 0
M  V30 2567 H 254.757 1.31003 0.597839 0
M  V30 2568 H 256.71 2.16176 3.61726 0
M  V30 2569 H 255.434 1.03255 3.09848 0
M  V30 2570 H 254.093 2.95329 2.17201 0
M  V30 2571 H 253.741 2.19092 4.52778 0
M  V30 2572 H 253.441 3.93894 4.36029 0
M  V30 2573 H 254.965 3.36496 5.09512 0
M  V30 2574 H 256.379 4.71173 3.26602 0
M  V30 2575 H 254.776 5.32528 2.76648 0
M  V30 2576 H 255.846 4.59186 1.55809 0
M  V30 2577 N 257.189 -0.644168 1.43834 0
M  V30 2578 C 258.414 -1.43642 1.49605 0
M  V30 2579 C 258.839 -1.8773 0.117913 0
M  V30 2580 O 258.197 -1.57938 -0.890239 0
M  V30 2581 C 258.245 -2.6416 2.45463 0
M  V30 2582 O 257.349 -3.63538 1.94714 0
M  V30 2583 H 256.69 -0.430329 0.50568 0
M  V30 2584 H 259.22 -0.787448 1.8884 0
M  V30 2585 H 259.23 -3.11864 2.63068 0
M  V30 2586 H 257.905 -2.31414 3.45572 0
M  V30 2587 H 256.482 -3.2273 1.86814 0
M  V30 2588 N 258.668 -1.30515 -0.883378 0
M  V30 2589 C 260.084 -1.08881 -1.16692 0
M  V30 2590 C 260.284 0.149409 -2.00945 0
M  V30 2591 O 259.34 0.84257 -2.38027 0
M  V30 2592 C 260.653 -2.35319 -1.87204 0
M  V30 2593 C 262.201 -2.40799 -1.99962 0
M  V30 2594 C 262.676 -3.67083 -2.73887 0
M  V30 2595 N 264.167 -3.679 -2.81432 0
M  V30 2596 C 264.902 -4.62303 -3.3921 0
M  V30 2597 N 264.398 -5.67052 -3.98025 0
M  V30 2598 N 266.191 -4.49845 -3.3704 0
M  V30 2599 H 258.342 -2.09951 -0.321633 0
M  V30 2600 H 260.605 -0.92556 -0.205043 0
M  V30 2601 H 260.311 -3.25689 -1.3274 0
M  V30 2602 H 260.185 -2.44089 -2.87577 0
M  V30 2603 H 262.572 -1.50907 -2.53597 0
M  V30 2604 H 262.653 -2.36003 -0.98673 0
M  V30 2605 H 262.297 -4.57334 -2.20925 0
M  V30 2606 H 262.227 -3.69141 -3.75556 0
M  V30 2607 H 264.718 -2.92171 -2.39676 0
M  V30 2608 H 265.031 -6.35184 -4.40183 0
M  V30 2609 H 263.376 -5.70842 -3.96439 0
M  V30 2610 H 266.567 -3.67194 -2.90321 0
M  V30 2611 H 266.74 -5.23597 -3.81772 0
M  V30 2612 N 260.146 1.09593 -1.13257 0
M  V30 2613 C 261.557 1.63229 -0.906274 0
M  V30 2614 C 261.908 1.8811 0.557578 0
M  V30 2615 O 261.033 1.62953 1.42391 0
M  V30 2616 C 261.628 2.96535 -1.63867 0
M  V30 2617 C 260.187 3.47003 -1.45828 0
M  V30 2618 C 259.334 2.2145 -1.66898 0
M  V30 2619 H 262.285 0.92978 -1.28611 0
M  V30 2620 H 262.306 3.64411 -1.09476 0
M  V30 2621 H 261.818 2.78394 -2.70404 0
M  V30 2622 H 259.919 3.70272 -0.415848 0
M  V30 2623 H 260.032 4.24551 -2.2202 0
M  V30 2624 H 258.396 2.30022 -1.09371 0
M  V30 2625 H 259.179 2.0583 -2.74752 0
M  V30 2626 N 261.624 0.925811 1.2754 0
M  V30 2627 C 262.574 0.394488 2.24561 0
M  V30 2628 C 263.558 -0.500183 1.52928 0
M  V30 2629 O 264.75 -0.337936 1.73744 0
M  V30 2630 C 261.879 -0.353328 3.41477 0
M  V30 2631 C 260.965 0.557752 4.20416 0
M  V30 2632 N 261.356 1.67674 4.77199 0
M  V30 2633 C 259.654 0.360404 4.44541 0
M  V30 2634 C 260.355 2.24324 5.36706 0
M  V30 2635 N 259.331 1.53305 5.21535 0
M  V30 2636 H 263.133 1.2489 2.66045 0
M  V30 2637 H 260.647 0.779864 1.4245 0
M  V30 2638 H 262.644 -0.7509 4.10082 0
M  V30 2639 H 261.304 -1.20469 3.01525 0
M  V30 2640 H 262.315 2.05915 4.75204 0
M  V30 2641 H 258.992 -0.450454 4.15063 0
M  V30 2642 H 260.382 3.18521 5.91603 0
M  V30 2643 N 263.102 -1.41638 0.69111 0
M  V30 2644 C 264.349 -2.01299 0.220193 0
M  V30 2645 C 264.677 -1.54715 -1.17871 0
M  V30 2646 O 263.932 -0.747193 -1.80874 0
M  V30 2647 C 264.231 -3.56714 0.221277 0
M  V30 2648 C 263.897 -4.22792 1.56709 0
M  V30 2649 C 262.559 -4.40557 1.93554 0
M  V30 2650 C 264.911 -4.59883 2.45268 0
M  V30 2651 C 262.239 -4.92688 3.18552 0
M  V30 2652 C 264.591 -5.13403 3.69595 0
M  V30 2653 C 263.255 -5.29379 4.06589 0
M  V30 2654 H 262.525 -0.736606 0.0805743 0
M  V30 2655 H 265.172 -1.69598 0.889319 0
M  V30 2656 H 263.477 -3.8818 -0.531391 0
M  V30 2657 H 265.174 -4.00678 -0.160547 0
M  V30 2658 H 261.764 -4.09336 1.2705 0
M  V30 2659 H 265.948 -4.45817 2.18084 0
M  V30 2660 H 261.204 -5.03242 3.47214 0
M  V30 2661 H 265.378 -5.41084 4.38407 0
M  V30 2662 H 263.005 -5.69537 5.03519 0
M  V30 2663 N 264.58 -0.43555 -1.51462 0
M  V30 2664 C 265.826 0.131709 -2.02372 0
M  V30 2665 C 266.159 1.42516 -1.3192 0
M  V30 2666 O 265.434 1.89606 -0.433573 0
M  V30 2667 C 265.717 0.352301 -3.58373 0
M  V30 2668 C 265.57 -0.959676 -4.39443 0
M  V30 2669 C 266.889 1.12286 -4.25535 0
M  V30 2670 H 264.008 0.0463936 -0.735538 0
M  V30 2671 H 266.65 -0.574197 -1.81116 0
M  V30 2672 H 264.8 0.9536 -3.76615 0
M  V30 2673 H 266.472 -1.59482 -4.32855 0
M  V30 2674 H 264.715 -1.56468 -4.04599 0
M  V30 2675 H 265.386 -0.759394 -5.46752 0
M  V30 2676 H 267.862 0.613545 -4.11552 0
M  V30 2677 H 266.738 1.24598 -5.34571 0
M  V30 2678 H 266.999 2.15048 -3.86273 0
M  V30 2679 N 266.058 1.56714 -0.166846 0
M  V30 2680 C 267.307 1.95922 0.479318 0
M  V30 2681 C 267.62 1.05529 1.6469 0
M  V30 2682 O 268.826 1.34399 2.35901 0
M  V30 2683 C 267.282 3.48359 0.90412 0
M  V30 2684 C 266.89 4.47369 -0.237621 0
M  V30 2685 C 268.634 3.96394 1.51896 0
M  V30 2686 C 266.541 5.91039 0.206561 0
M  V30 2687 H 265.471 0.731495 0.18284 0
M  V30 2688 H 268.122 1.81728 -0.254363 0
M  V30 2689 H 266.504 3.57955 1.69365 0
M  V30 2690 H 267.678 4.49485 -1.01489 0
M  V30 2691 H 265.993 4.09366 -0.762128 0
M  V30 2692 H 268.59 5.01186 1.86325 0
M  V30 2693 H 268.933 3.39075 2.41524 0
M  V30 2694 H 269.466 3.89796 0.79395 0
M  V30 2695 H 266.205 6.52221 -0.654834 0
M  V30 2696 H 265.725 5.9224 0.949282 0
M  V30 2697 H 267.404 6.43707 0.651939 0
M  V30 2698 N 267.536 -0.106894 1.57237 0
M  V30 2699 C 268.813 -0.843526 1.76477 0
M  V30 2700 C 269.193 -1.97499 0.745464 0
M  V30 2701 O 268.541 -2.27357 -0.228306 0
M  V30 2702 C 268.751 -1.34903 3.21873 0
M  V30 2703 C 270.099 -1.79654 3.8472 0
M  V30 2704 O 271.123 -1.44554 3.2555 0
M  V30 2705 O 269.982 -2.44515 4.88748 0
M  V30 2706 H 267.076 -0.401468 0.723016 0
M  V30 2707 H 269.622 -0.0896927 1.69463 0
M  V30 2708 H 268.394 -0.53781 3.87586 0
M  V30 2709 H 268.017 -2.16522 3.33473 0
M  V30 2710 N 269.014 -1.53014 -0.377408 0
M  V30 2711 C 269.977 -1.77957 -1.44444 0
M  V30 2712 C 270.977 -0.649763 -1.47087 0
M  V30 2713 O 272.167 -0.917897 -1.48055 0
M  V30 2714 C 269.299 -1.89089 -2.83651 0
M  V30 2715 H 270.492 -2.73243 -1.23606 0
M  V30 2716 H 268.045 -1.43912 -0.609844 0
M  V30 2717 H 268.78 -0.958293 -3.09818 0
M  V30 2718 H 268.565 -2.71254 -2.83132 0
M  V30 2719 H 270.055 -2.1002 -3.60945 0
M  V30 2720 N 270.492 0.636531 -1.44174 0
M  V30 2721 C 271.439 1.74875 -1.50624 0
M  V30 2722 C 272.409 1.62275 -0.35442 0
M  V30 2723 O 273.594 1.82276 -0.563908 0
M  V30 2724 C 270.734 3.13102 -1.45125 0
M  V30 2725 C 269.847 3.36717 -2.7064 0
M  V30 2726 C 268.982 4.64885 -2.57013 0
M  V30 2727 C 268.021 4.8166 -3.77717 0
M  V30 2728 N 267.158 6.01101 -3.62798 0
M  V30 2729 H 271.998 1.68697 -2.45653 0
M  V30 2730 H 269.535 0.823004 -1.21922 0
M  V30 2731 H 271.493 3.93034 -1.39929 0
M  V30 2732 H 270.123 3.18308 -0.536671 0
M  V30 2733 H 269.175 2.50763 -2.86046 0
M  V30 2734 H 270.487 3.44993 -3.60252 0
M  V30 2735 H 269.641 5.52969 -2.49619 0
M  V30 2736 H 268.38 4.58957 -1.64953 0
M  V30 2737 H 267.385 3.92007 -3.85501 0
M  V30 2738 H 268.61 4.89406 -4.70807 0
M  V30 2739 H 266.556 5.96273 -2.73486 0
M  V30 2740 H 266.473 6.10409 -4.46023 0
M  V30 2741 H 267.741 6.91761 -3.59286 0
M  V30 2742 N 271.97 1.30982 0.876444 0
M  V30 2743 C 273.198 1.23242 1.6619 0
M  V30 2744 C 273.613 -0.203345 1.87702 0
M  V30 2745 O 272.97 -1.13317 1.43057 0
M  V30 2746 C 273.021 1.96623 3.03351 0
M  V30 2747 O 272.742 3.34594 2.82804 0
M  V30 2748 C 274.243 1.95644 3.97792 0
M  V30 2749 H 271.463 0.426126 0.518322 0
M  V30 2750 H 274.007 1.7275 1.09442 0
M  V30 2751 H 272.162 1.50892 3.56806 0
M  V30 2752 H 272.576 3.71873 3.69879 0
M  V30 2753 H 274.05 2.51511 4.91372 0
M  V30 2754 H 274.527 0.937395 4.2908 0
M  V30 2755 H 275.133 2.41225 3.50272 0
M  V30 2756 N 273.449 -1.08991 1.13837 0
M  V30 2757 C 274.697 -1.80899 0.901098 0
M  V30 2758 C 275.018 -1.86356 -0.574134 0
M  V30 2759 O 274.288 -1.35235 -1.41733 0
M  V30 2760 H 272.868 -0.669966 0.330386 0
M  V30 2761 H 275.53 -1.318 1.43578 0
M  V30 2762 H 274.626 -2.83929 1.29578 0
M  V30 2763 N 274.927 -0.932562 -1.27047 0
M  V30 2764 C 275.837 -0.441219 -2.30414 0
M  V30 2765 C 276.853 0.480525 -1.67233 0
M  V30 2766 O 278.029 0.362151 -1.98117 0
M  V30 2767 C 275.094 0.293651 -3.45454 0
M  V30 2768 C 274.155 -0.663601 -4.2414 0
M  V30 2769 C 273.388 0.0362932 -5.33688 0
M  V30 2770 O 273.611 1.2548 -5.56427 0
M  V30 2771 O 272.545 -0.638015 -5.98509 0
M  V30 2772 H 276.371 -1.29962 -2.74488 0
M  V30 2773 H 273.956 -0.6981 -1.32087 0
M  V30 2774 H 275.838 0.707951 -4.15411 0
M  V30 2775 H 274.513 1.12758 -3.03426 0
M  V30 2776 H 273.42 -1.12768 -3.56699 0
M  V30 2777 H 274.753 -1.46489 -4.69896 0
M  V30 2778 N 276.405 1.4127 -0.698611 0
M  V30 2779 C 277.651 2.01478 -0.231207 0
M  V30 2780 C 277.984 1.55215 1.16713 0
M  V30 2781 O 277.259 0.764672 1.78838 0
M  V30 2782 C 277.542 3.58912 -0.292281 0
M  V30 2783 C 277.395 4.15293 -1.72778 0
M  V30 2784 C 278.714 4.38736 0.346194 0
M  V30 2785 H 275.833 0.732025 -0.0854878 0
M  V30 2786 H 278.475 1.67977 -0.887906 0
M  V30 2787 H 276.625 3.87582 0.26686 0
M  V30 2788 H 278.297 3.97486 -2.341 0
M  V30 2789 H 276.54 3.7022 -2.26096 0
M  V30 2790 H 277.211 5.24452 -1.72202 0
M  V30 2791 H 279.687 4.15897 -0.130035 0
M  V30 2792 H 278.563 5.48221 0.272932 0
M  V30 2793 H 278.824 4.18425 1.42734 0
M  V30 2794 N 277.883 0.443576 1.51229 0
M  V30 2795 C 278.813 -0.355142 2.30783 0
M  V30 2796 C 279.794 -1.0154 1.36468 0
M  V30 2797 O 280.979 -1.01785 1.65389 0
M  V30 2798 C 278.109 -1.45312 3.15439 0
M  V30 2799 C 277.063 -0.916002 4.18083 0
M  V30 2800 C 276.389 -2.1102 4.91299 0
M  V30 2801 C 277.689 0.0538602 5.22272 0
M  V30 2802 H 279.383 0.308767 2.97804 0
M  V30 2803 H 276.929 0.149937 1.43217 0
M  V30 2804 H 278.882 -2.01914 3.69876 0
M  V30 2805 H 277.606 -2.14541 2.46252 0
M  V30 2806 H 276.265 -0.372145 3.64706 0
M  V30 2807 H 275.913 -2.78882 4.18609 0
M  V30 2808 H 275.613 -1.75717 5.60712 0
M  V30 2809 H 277.137 -2.68164 5.48562 0
M  V30 2810 H 278.551 -0.422069 5.71744 0
M  V30 2811 H 276.948 0.319776 5.99247 0
M  V30 2812 H 278.018 0.98858 4.74716 0
M  V30 2813 N 279.361 -1.56624 0.175154 0
M  V30 2814 C 280.638 -1.88688 -0.515373 0
M  V30 2815 C 281.018 -1.08564 -1.81044 0
M  V30 2816 O 280.366 -0.180703 -2.27784 0
M  V30 2817 C 280.576 -3.40768 -0.753552 0
M  V30 2818 C 281.924 -4.10587 -1.08184 0
M  V30 2819 O 282.948 -3.46106 -0.841961 0
M  V30 2820 O 281.807 -5.24512 -1.53459 0
M  V30 2821 H 278.901 -0.78301 -0.26613 0
M  V30 2822 H 281.447 -1.68347 0.213877 0
M  V30 2823 H 280.219 -3.90965 0.161829 0
M  V30 2824 H 279.842 -3.66733 -1.53598 0
M  V30 2825 N 280.839 0.0985539 -1.57292 0
M  V30 2826 C 281.771 1.14595 -1.98496 0
M  V30 2827 C 282.784 1.36512 -0.887031 0
M  V30 2828 O 283.973 1.35225 -1.16518 0
M  V30 2829 C 281.073 2.50216 -2.28572 0
M  V30 2830 C 280.246 2.48624 -3.59868 0
M  V30 2831 C 279.305 3.66146 -3.7792 0
M  V30 2832 O 278.331 3.48795 -4.49812 0
M  V30 2833 N 279.533 4.85496 -3.18235 0
M  V30 2834 H 282.298 0.795277 -2.88956 0
M  V30 2835 H 279.859 0.287579 -1.59325 0
M  V30 2836 H 281.851 3.27432 -2.37845 0
M  V30 2837 H 280.421 2.77387 -1.44136 0
M  V30 2838 H 279.641 1.56978 -3.61596 0
M  V30 2839 H 280.929 2.44635 -4.46129 0
M  V30 2840 H 280.327 5.02497 -2.59833 0
M  V30 2841 H 278.884 5.60317 -3.32999 0
M  V30 2842 N 282.317 1.53212 0.369288 0
M  V30 2843 C 283.563 1.70413 1.11046 0
M  V30 2844 C 283.918 0.448509 1.87099 0
M  V30 2845 O 283.211 -0.558382 1.83283 0
M  V30 2846 C 283.405 2.89101 2.10132 0
M  V30 2847 C 283.234 4.26084 1.43814 0
M  V30 2848 C 282.004 4.90994 1.19384 0
M  V30 2849 C 284.202 5.06754 0.877802 0
M  V30 2850 N 282.184 6.11911 0.49377 0
M  V30 2851 C 283.555 6.1924 0.306891 0
M  V30 2852 C 285.61 4.91814 0.776129 0
M  V30 2853 C 284.313 7.1842 -0.355774 0
M  V30 2854 C 286.339 5.91263 0.127252 0
M  V30 2855 C 285.701 7.03069 -0.432801 0
M  V30 2856 H 281.8 0.676872 0.391623 0
M  V30 2857 H 284.384 1.90603 0.397334 0
M  V30 2858 H 282.555 2.70456 2.78761 0
M  V30 2859 H 284.287 2.95142 2.76899 0
M  V30 2860 H 281.042 4.50074 1.47413 0
M  V30 2861 H 281.466 6.76813 0.159207 0
M  V30 2862 H 286.108 4.05564 1.19489 0
M  V30 2863 H 283.826 8.04264 -0.786499 0
M  V30 2864 H 287.412 5.81779 0.0495613 0
M  V30 2865 H 286.292 7.78702 -0.926958 0
M  V30 2866 N 283.795 -0.628877 1.44509 0
M  V30 2867 C 284.705 -1.7694 1.54044 0
M  V30 2868 C 285.721 -1.68705 0.425987 0
M  V30 2869 O 286.897 -1.89442 0.683656 0
M  V30 2870 C 283.962 -3.13332 1.48405 0
M  V30 2871 C 283.023 -3.33181 2.70719 0
M  V30 2872 C 282.256 -4.63067 2.6534 0
M  V30 2873 O 282.479 -5.44017 1.71469 0
M  V30 2874 O 281.413 -4.85167 3.56226 0
M  V30 2875 H 285.239 -1.71848 2.50403 0
M  V30 2876 H 282.824 -0.790378 1.26781 0
M  V30 2877 H 284.706 -3.94634 1.47791 0
M  V30 2878 H 283.381 -3.1896 0.551898 0
M  V30 2879 H 282.288 -2.51549 2.769 0
M  V30 2880 H 283.621 -3.32416 3.62988 0
M  V30 2881 N 285.273 -1.31445 -0.869486 0
M  V30 2882 C 286.521 -1.20918 -1.61936 0
M  V30 2883 C 286.842 0.232683 -1.93607 0
M  V30 2884 O 286.112 1.15352 -1.58338 0
M  V30 2885 H 284.692 -0.44454 -0.600328 0
M  V30 2886 H 287.354 -1.64776 -1.0409 0
M  V30 2887 H 286.45 -1.78124 -2.56278 0
M  V30 2888 N 286.751 1.08385 -1.14413 0
M  V30 2889 C 287.681 2.17321 -0.854044 0
M  V30 2890 C 288.662 1.69024 0.191049 0
M  V30 2891 O 289.847 1.94141 0.0476779 0
M  V30 2892 C 286.977 3.45719 -0.330983 0
M  V30 2893 C 285.931 4.07409 -1.31155 0
M  V30 2894 C 285.257 5.30762 -0.64778 0
M  V30 2895 C 286.557 4.48665 -2.67388 0
M  V30 2896 H 288.251 2.41845 -1.76498 0
M  V30 2897 H 285.797 1.16233 -0.850051 0
M  V30 2898 H 287.75 4.21241 -0.115645 0
M  V30 2899 H 286.474 3.2075 0.615381 0
M  V30 2900 H 285.133 3.33919 -1.51306 0
M  V30 2901 H 284.781 5.02078 0.304398 0
M  V30 2902 H 284.481 5.72992 -1.30207 0
M  V30 2903 H 286.005 6.08998 -0.441972 0
M  V30 2904 H 287.419 5.15364 -2.51143 0
M  V30 2905 H 285.816 5.01814 -3.29093 0
M  V30 2906 H 286.886 3.60543 -3.24248 0
M  V30 2907 N 288.23 0.939286 1.26551 0
M  V30 2908 C 289.193 0.451987 2.24699 0
M  V30 2909 C 290.193 -0.435869 1.5478 0
M  V30 2910 O 291.383 -0.235314 1.72603 0
M  V30 2911 C 288.515 -0.348801 3.39111 0
M  V30 2912 H 289.708 1.3193 2.69322 0
M  V30 2913 H 287.261 0.721072 1.38673 0
M  V30 2914 H 287.996 -1.23444 2.99887 0
M  V30 2915 H 287.781 0.287945 3.91041 0
M  V30 2916 H 289.271 -0.679726 4.12031 0
M  V30 2917 N 289.708 -1.40897 0.706093 0
M  V30 2918 C 290.658 -2.27987 0.0240746 0
M  V30 2919 C 291.642 -1.42759 -0.742204 0
M  V30 2920 O 292.834 -1.65936 -0.615966 0
M  V30 2921 C 289.963 -3.31186 -0.903907 0
M  V30 2922 C 289.049 -4.2389 -0.133318 0
M  V30 2923 N 289.44 -4.98113 0.878444 0
M  V30 2924 C 287.738 -4.44485 -0.367269 0
M  V30 2925 C 288.439 -5.6604 1.34064 0
M  V30 2926 N 287.415 -5.39522 0.664565 0
M  V30 2927 H 291.217 -2.82812 0.799658 0
M  V30 2928 H 288.731 -1.53235 0.537845 0
M  V30 2929 H 290.728 -3.92413 -1.40775 0
M  V30 2930 H 289.388 -2.77922 -1.67897 0
M  V30 2931 H 290.399 -5.02364 1.25901 0
M  V30 2932 H 287.076 -4.02213 -1.1194 0
M  V30 2933 H 288.466 -6.35524 2.1808 0
M  V30 2934 N 291.186 -0.45159 -1.50991 0
M  V30 2935 C 292.149 0.341117 -2.26647 0
M  V30 2936 C 293.149 0.937422 -1.30649 0
M  V30 2937 O 294.339 0.809644 -1.54241 0
M  V30 2938 C 291.471 1.48398 -3.06905 0
M  V30 2939 H 292.664 -0.322117 -2.98165 0
M  V30 2940 H 290.217 -0.205122 -1.54948 0
M  V30 2941 H 290.952 2.18284 -2.39838 0
M  V30 2942 H 290.737 1.06241 -3.77432 0
M  V30 2943 H 292.227 2.04367 -3.64176 0
M  V30 2944 N 292.664 1.56529 -0.183458 0
M  V30 2945 C 293.574 2.22144 0.754272 0
M  V30 2946 C 294.59 1.21684 1.24374 0
M  V30 2947 O 295.766 1.54385 1.29333 0
M  V30 2948 C 292.831 2.85884 1.96141 0
M  V30 2949 C 291.892 4.01579 1.51765 0
M  V30 2950 C 291.125 4.6227 2.66725 0
M  V30 2951 O 291.348 4.21865 3.83909 0
M  V30 2952 O 290.282 5.51936 2.40104 0
M  V30 2953 H 294.108 3.02861 0.225527 0
M  V30 2954 H 291.693 1.49331 0.0453032 0
M  V30 2955 H 293.575 3.26253 2.66715 0
M  V30 2956 H 292.25 2.08154 2.47899 0
M  V30 2957 H 291.157 3.65856 0.781049 0
M  V30 2958 H 292.49 4.80938 1.04686 0
M  V30 2959 N 294.142 -0.090211 1.57342 0
M  V30 2960 C 295.105 -1.09335 2.01441 0
M  V30 2961 C 296.105 -1.32666 0.908641 0
M  V30 2962 O 297.295 -1.28697 1.174 0
M  V30 2963 C 294.427 -2.44136 2.3793 0
M  V30 2964 H 295.62 -0.713662 2.91285 0
M  V30 2965 H 293.173 -0.335404 1.52659 0
M  V30 2966 H 293.908 -2.86972 1.51055 0
M  V30 2967 H 293.693 -2.28548 3.18603 0
M  V30 2968 H 295.183 -3.16277 2.72688 0
M  V30 2969 N 295.62 -1.53406 -0.361157 0
M  V30 2970 C 296.868 -1.69467 -1.10115 0
M  V30 2971 C 297.189 -0.451352 -1.89705 0
M  V30 2972 O 296.459 0.534636 -1.88463 0
M  V30 2973 H 295.039 -0.624749 -0.409508 0
M  V30 2974 H 297.701 -1.90609 -0.406699 0
M  V30 2975 H 296.797 -2.55774 -1.78847 0
M  V30 2976 N 297.098 0.621204 -1.44841 0
M  V30 2977 C 298.346 1.37783 -1.47852 0
M  V30 2978 C 298.667 1.94653 -0.116224 0
M  V30 2979 O 297.937 1.76367 0.852737 0
M  V30 2980 H 296.517 0.511453 -0.544449 0
M  V30 2981 H 299.179 0.730446 -1.80694 0
M  V30 2982 H 298.275 2.20414 -2.20961 0
M  V30 2983 N 298.576 1.31904 0.862503 0
M  V30 2984 C 299.987 1.19803 1.43193 0
M  V30 2985 C 300.338 -0.192567 1.95253 0
M  V30 2986 O 299.463 -1.09081 1.86896 0
M  V30 2987 C 300.058 2.16883 2.60283 0
M  V30 2988 C 298.617 2.08692 3.13248 0
M  V30 2989 C 297.764 2.05691 1.85975 0
M  V30 2990 H 300.715 1.43846 0.670365 0
M  V30 2991 H 300.736 1.76278 3.37204 0
M  V30 2992 H 300.248 3.18083 2.22363 0
M  V30 2993 H 298.349 1.10713 3.55771 0
M  V30 2994 H 298.462 2.9815 3.75025 0
M  V30 2995 H 296.826 1.50814 2.05249 0
M  V30 2996 H 297.609 3.08659 1.50282 0
M  V30 2997 N 300.054 -1.07777 1.14986 0
M  V30 2998 C 301.302 -1.79934 0.920235 0
M  V30 2999 C 301.623 -1.86955 -0.554336 0
M  V30 3000 O 300.893 -1.36731 -1.40291 0
M  V30 3001 H 299.473 -0.666424 0.337473 0
M  V30 3002 H 302.135 -1.3027 1.44968 0
M  V30 3003 H 301.231 -2.82539 1.32583 0
M  V30 3004 N 301.532 -0.945985 -1.26051 0
M  V30 3005 C 302.78 -0.594941 -1.93145 0
M  V30 3006 C 303.101 0.86953 -1.7454 0
M  V30 3007 O 302.371 1.61838 -1.10387 0
M  V30 3008 H 300.951 -0.217044 -0.714773 0
M  V30 3009 H 303.613 -1.20235 -1.53393 0
M  V30 3010 H 302.709 -0.816835 -3.01221 0
M  V30 3011 N 303.011 1.40521 -0.713556 0
M  V30 3012 C 303.959 2.32549 -0.0485227 0
M  V30 3013 C 304.953 1.51931 0.74922 0
M  V30 3014 O 306.159 1.67745 0.652816 0
M  V30 3015 H 302.534 0.751994 0.00311138 0
M  V30 3016 H 304.505 2.86291 -0.841443 0
M  V30 3017 C 303.254 3.36879 0.860687 0
M  V30 3018 H 302.577 3.98978 0.256246 0
M  V30 3019 H 304.017 4.03772 1.294 0
M  V30 3020 C 302.476 2.72197 1.9852 0
M  V30 3021 O 303.006 2.5837 3.07584 0
M  V30 3022 N 301.212 2.30612 1.76823 0
M  V30 3023 H 300.759 2.42059 0.881217 0
M  V30 3024 H 300.717 1.87672 2.52243 0
M  V30 3025 N 304.489 0.459591 1.5075 0
M  V30 3026 C 305.421 -0.37665 2.26084 0
M  V30 3027 C 306.434 -0.967109 1.30961 0
M  V30 3028 O 307.623 -0.857468 1.56556 0
M  V30 3029 C 304.723 -1.54112 3.01832 0
M  V30 3030 C 303.896 -1.06553 4.24223 0
M  V30 3031 C 302.955 -2.1027 4.82362 0
M  V30 3032 O 301.981 -1.68798 5.43595 0
M  V30 3033 N 303.183 -3.42974 4.68347 0
M  V30 3034 H 305.948 0.269124 2.98489 0
M  V30 3035 H 303.509 0.28972 1.59287 0
M  V30 3036 H 305.501 -2.23165 3.37608 0
M  V30 3037 H 304.071 -2.0918 2.32298 0
M  V30 3038 H 303.291 -0.201274 3.93686 0
M  V30 3039 H 304.579 -0.725516 5.03601 0
M  V30 3040 H 303.977 -3.79385 4.19623 0
M  V30 3041 H 302.534 -4.07858 5.08424 0
M  V30 3042 N 305.967 -1.56429 0.191757 0
M  V30 3043 C 306.914 -2.18936 -0.730454 0
M  V30 3044 C 307.884 -1.13557 -1.21219 0
M  V30 3045 O 309.069 -1.41794 -1.27668 0
M  V30 3046 C 306.209 -2.85013 -1.9458 0
M  V30 3047 C 305.322 -4.04909 -1.50574 0
M  V30 3048 C 304.457 -4.58853 -2.67634 0
M  V30 3049 C 303.496 -5.71114 -2.20217 0
M  V30 3050 N 302.633 -6.19478 -3.30442 0
M  V30 3051 H 307.473 -2.97389 -0.190664 0
M  V30 3052 H 305.01 -1.46869 -0.0823694 0
M  V30 3053 H 306.968 -3.21492 -2.65893 0
M  V30 3054 H 305.598 -2.09129 -2.45896 0
M  V30 3055 H 304.65 -3.74115 -0.688605 0
M  V30 3056 H 305.962 -4.86113 -1.11784 0
M  V30 3057 H 305.116 -4.97619 -3.47074 0
M  V30 3058 H 303.855 -3.76749 -3.09696 0
M  V30 3059 H 302.86 -5.31879 -1.3923 0
M  V30 3060 H 304.085 -6.55033 -1.79189 0
M  V30 3061 H 302.031 -5.40297 -3.72041 0
M  V30 3062 H 301.948 -6.95725 -2.9581 0
M  V30 3063 H 303.216 -6.62898 -4.10106 0
M  V30 3064 N 307.445 0.0818655 -1.57387 0
M  V30 3065 C 308.694 0.781681 -1.85937 0
M  V30 3066 C 309.007 1.79246 -0.782957 0
M  V30 3067 O 310.213 2.54112 -0.955987 0
M  V30 3068 C 308.669 1.44109 -3.29789 0
M  V30 3069 C 308.277 0.469396 -4.45534 0
M  V30 3070 C 310.021 2.12386 -3.67549 0
M  V30 3071 C 307.928 1.13415 -5.80423 0
M  V30 3072 H 306.858 0.295682 -0.693605 0
M  V30 3073 H 309.509 0.0348051 -1.83467 0
M  V30 3074 H 307.891 2.23588 -3.2684 0
M  V30 3075 H 309.065 -0.294856 -4.59856 0
M  V30 3076 H 307.38 -0.108383 -4.16259 0
M  V30 3077 H 309.977 2.62878 -4.65617 0
M  V30 3078 H 310.32 2.91877 -2.96839 0
M  V30 3079 H 310.853 1.39751 -3.72444 0
M  V30 3080 H 307.592 0.379771 -6.54399 0
M  V30 3081 H 307.112 1.8695 -5.69921 0
M  V30 3082 H 308.791 1.65686 -6.25426 0
M  V30 3083 N 308.923 1.53595 0.353017 0
M  V30 3084 C 310.171 1.70049 1.09215 0
M  V30 3085 C 310.492 0.461406 1.89463 0
M  V30 3086 O 309.762 -0.524633 1.88744 0
M  V30 3087 H 308.342 0.626912 0.40619 0
M  V30 3088 H 311.004 1.90822 0.396585 0
M  V30 3089 H 310.1 2.56718 1.77488 0
M  V30 3090 N 310.401 -0.613514 1.45168 0
M  V30 3091 C 311.348 -1.72456 1.53387 0
M  V30 3092 C 312.318 -1.6169 0.380191 0
M  V30 3093 O 313.503 -1.81356 0.592836 0
M  V30 3094 C 310.643 -3.10753 1.50088 0
M  V30 3095 C 309.756 -3.32368 2.75963 0
M  V30 3096 C 308.891 -4.60737 2.64376 0
M  V30 3097 C 307.93 -4.7559 3.85332 0
M  V30 3098 N 307.067 -5.95253 3.72315 0
M  V30 3099 H 311.907 -1.64768 2.48305 0
M  V30 3100 H 309.444 -0.803503 1.23216 0
M  V30 3101 H 311.402 -3.90758 1.46164 0
M  V30 3102 H 310.032 -3.17413 0.587243 0
M  V30 3103 H 309.084 -2.4618 2.89999 0
M  V30 3104 H 310.396 -3.39218 3.65695 0
M  V30 3105 H 309.55 -5.48928 2.58385 0
M  V30 3106 H 308.289 -4.56275 1.72233 0
M  V30 3107 H 307.294 -3.85824 3.91688 0
M  V30 3108 H 308.519 -4.81854 4.78533 0
M  V30 3109 H 306.465 -5.91847 2.82937 0
M  V30 3110 H 306.382 -6.03236 4.55677 0
M  V30 3111 H 307.65 -6.85958 3.70246 0
M  V30 3112 N 311.879 -1.3236 -0.855495 0
M  V30 3113 C 313.109 -1.25688 -1.6397 0
M  V30 3114 C 313.517 0.177592 -1.88365 0
M  V30 3115 O 312.86 1.12485 -1.45234 0
M  V30 3116 C 312.922 -1.94602 -3.02275 0
M  V30 3117 C 312.586 -3.43937 -3.00926 0
M  V30 3118 C 313.583 -4.39435 -2.77835 0
M  V30 3119 C 311.268 -3.85858 -3.21588 0
M  V30 3120 C 313.262 -5.74829 -2.75409 0
M  V30 3121 C 310.949 -5.21361 -3.18789 0
M  V30 3122 C 311.947 -6.15658 -2.95727 0
M  V30 3123 O 311.635 -7.48681 -2.928 0
M  V30 3124 H 311.367 -0.434972 -0.51747 0
M  V30 3125 H 313.921 -1.75023 -1.075 0
M  V30 3126 H 312.151 -1.39836 -3.60531 0
M  V30 3127 H 313.84 -1.81651 -3.62985 0
M  V30 3128 H 314.606 -4.08374 -2.6164 0
M  V30 3129 H 310.485 -3.12883 -3.38564 0
M  V30 3130 H 314.029 -6.48404 -2.57328 0
M  V30 3131 H 309.926 -5.52052 -3.34528 0
M  V30 3132 H 310.694 -7.5803 -3.0876 0
M  V30 3133 N 313.357 1.07166 -1.15556 0
M  V30 3134 C 314.585 1.83514 -0.955519 0
M  V30 3135 C 315 1.82163 0.49621 0
M  V30 3136 O 314.357 1.23441 1.34419 0
M  V30 3137 C 314.408 3.30515 -1.46432 0
M  V30 3138 O 314.129 3.31937 -2.85918 0
M  V30 3139 C 315.63 4.23625 -1.30603 0
M  V30 3140 H 312.85 0.578926 -0.339244 0
M  V30 3141 H 315.394 1.35265 -1.53374 0
M  V30 3142 H 313.549 3.76106 -0.928584 0
M  V30 3143 H 313.963 4.23794 -3.09029 0
M  V30 3144 H 315.437 5.24831 -1.71047 0
M  V30 3145 H 315.914 4.38485 -0.250441 0
M  V30 3146 H 316.52 3.83871 -1.83094 0
M  V30 3147 N 314.835 0.952656 1.25548 0
M  V30 3148 C 316.065 0.622592 1.96996 0
M  V30 3149 C 316.473 -0.809112 1.71026 0
M  V30 3150 O 315.816 -1.55258 0.981861 0
M  V30 3151 C 315.878 0.798946 3.5051 0
M  V30 3152 C 315.542 2.20744 4.00151 0
M  V30 3153 C 316.539 3.18394 4.11001 0
M  V30 3154 C 314.224 2.5311 4.33867 0
M  V30 3155 C 316.218 4.46504 4.54877 0
M  V30 3156 C 313.905 3.8145 4.7743 0
M  V30 3157 C 314.903 4.77959 4.87897 0
M  V30 3158 O 314.591 6.04012 5.30494 0
M  V30 3159 H 314.323 0.232503 0.634758 0
M  V30 3160 H 316.877 1.2789 1.60728 0
M  V30 3161 H 315.107 0.0854903 3.86605 0
M  V30 3162 H 316.796 0.47023 4.03167 0
M  V30 3163 H 317.562 2.94715 3.85186 0
M  V30 3164 H 313.441 1.78719 4.24948 0
M  V30 3165 H 316.985 5.21835 4.62962 0
M  V30 3166 H 312.882 4.04936 5.0269 0
M  V30 3167 H 313.65 6.0736 5.48685 0
M  V30 3168 N 316.313 -1.40141 0.720998 0
M  V30 3169 C 317.561 -2.0039 0.262323 0
M  V30 3170 C 317.882 -1.57469 -1.15015 0
M  V30 3171 O 317.152 -0.816582 -1.78069 0
M  V30 3172 H 315.732 -0.741063 0.093996 0
M  V30 3173 H 318.394 -1.71398 0.927835 0
M  V30 3174 H 317.49 -3.10658 0.299671 0
M  V30 3175 N 317.792 -0.46758 -1.50504 0
M  V30 3176 C 319.017 0.0886943 -2.0721 0
M  V30 3177 C 319.442 1.33057 -1.32956 0
M  V30 3178 O 318.8 1.77354 -0.376197 0
M  V30 3179 C 318.848 0.359202 -3.58806 0
M  V30 3180 O 317.952 1.44034 -3.8643 0
M  V30 3181 H 317.293 -0.0114349 -0.663902 0
M  V30 3182 H 319.823 -0.657613 -1.93744 0
M  V30 3183 H 319.833 0.600742 -4.03553 0
M  V30 3184 H 318.508 -0.548311 -4.1227 0
M  V30 3185 H 317.085 1.18638 -3.53524 0
M  V30 3186 N 319.27 1.56325 -0.20005 0
M  V30 3187 C 320.547 1.89484 0.48529 0
M  V30 3188 C 320.927 1.1143 1.79294 0
M  V30 3189 O 320.275 0.216919 2.27468 0
M  V30 3190 C 320.485 3.41923 0.699243 0
M  V30 3191 C 321.833 4.12256 1.01638 0
M  V30 3192 O 322.857 3.47402 0.786792 0
M  V30 3193 O 321.716 5.26887 1.45095 0
M  V30 3194 H 318.81 0.787144 0.253639 0
M  V30 3195 H 321.356 1.67985 -0.240633 0
M  V30 3196 H 320.128 3.90658 -0.224008 0
M  V30 3197 H 319.751 3.69131 1.47744 0
M  V30 3198 N 320.748 -0.0735177 1.57428 0
M  V30 3199 C 321.978 -0.78483 1.91112 0
M  V30 3200 C 322.386 -1.71729 0.7941 0
M  V30 3201 O 321.729 -1.82105 -0.241542 0
M  V30 3202 C 321.791 -1.63346 3.20247 0
M  V30 3203 C 321.455 -0.870557 4.48632 0
M  V30 3204 C 322.452 -0.19058 5.19551 0
M  V30 3205 C 320.137 -0.838242 4.95256 0
M  V30 3206 C 322.131 0.511503 6.35344 0
M  V30 3207 C 319.818 -0.132386 6.10957 0
M  V30 3208 C 320.816 0.541288 6.80852 0
M  V30 3209 O 320.504 1.23578 7.94345 0
M  V30 3210 H 320.236 -0.228408 0.636244 0
M  V30 3211 H 322.79 -0.0486039 2.05342 0
M  V30 3212 H 321.02 -2.41245 3.02222 0
M  V30 3213 H 322.709 -2.22329 3.39595 0
M  V30 3214 H 323.475 -0.206864 4.84559 0
M  V30 3215 H 319.354 -1.35206 4.40727 0
M  V30 3216 H 322.898 1.03789 6.89836 0
M  V30 3217 H 318.795 -0.114023 6.45399 0
M  V30 3218 H 319.563 1.14487 8.10454 0
M  V30 3219 N 322.226 -1.5378 -0.344866 0
M  V30 3220 C 323.474 -1.70625 -1.08311 0
M  V30 3221 C 323.795 -0.471447 -1.89215 0
M  V30 3222 O 323.065 0.514616 -1.8902 0
M  V30 3223 H 321.645 -0.629058 -0.402859 0
M  V30 3224 H 324.307 -1.9103 -0.386459 0
M  V30 3225 H 323.403 -2.57656 -1.76124 0
M  V30 3226 N 323.704 0.605807 -1.45491 0
M  V30 3227 C 325.115 1.18777 -1.44045 0
M  V30 3228 C 325.466 1.95471 -0.169001 0
M  V30 3229 O 324.591 2.0374 0.729324 0
M  V30 3230 C 325.186 2.16064 -2.60963 0
M  V30 3231 C 323.745 2.69633 -2.62631 0
M  V30 3232 C 322.892 1.45072 -2.36325 0
M  V30 3233 H 325.843 0.395017 -1.53705 0
M  V30 3234 H 325.864 2.9913 -2.35163 0
M  V30 3235 H 325.376 1.60217 -3.53486 0
M  V30 3236 H 323.477 3.29414 -1.74119 0
M  V30 3237 H 323.59 3.13944 -3.61906 0
M  V30 3238 H 321.954 1.74089 -1.85917 0
M  V30 3239 H 322.737 0.910899 -3.30995 0
M  V30 3240 N 325.182 1.32811 0.848464 0
M  V30 3241 C 326.112 1.24882 1.97299 0
M  V30 3242 C 327.093 0.131357 1.69592 0
M  V30 3243 O 328.278 0.319553 1.91553 0
M  V30 3244 C 325.408 0.97746 3.33261 0
M  V30 3245 C 324.362 2.05682 3.75338 0
M  V30 3246 C 323.688 1.63777 5.09 0
M  V30 3247 C 324.988 3.47254 3.90144 0
M  V30 3248 H 326.682 2.18966 2.04191 0
M  V30 3249 H 324.228 1.05413 0.981029 0
M  V30 3250 H 326.181 0.908513 4.1149 0
M  V30 3251 H 324.905 0.000980011 3.266 0
M  V30 3252 H 323.564 2.11603 2.99366 0
M  V30 3253 H 323.212 0.648569 4.98801 0
M  V30 3254 H 322.912 2.36 5.38124 0
M  V30 3255 H 324.436 1.5833 5.89715 0
M  V30 3256 H 325.85 3.43888 4.58709 0
M  V30 3257 H 324.247 4.1788 4.30693 0
M  V30 3258 H 325.317 3.86462 2.92874 0
M  V30 3259 N 326.66 -1.06551 1.16123 0
M  V30 3260 C 327.909 -1.78687 0.935622 0
M  V30 3261 C 328.222 -1.88056 -0.538001 0
M  V30 3262 O 329.428 -2.56794 -0.88143 0
M  V30 3263 C 327.884 -3.21143 1.62466 0
M  V30 3264 C 327.492 -3.19949 3.13587 0
M  V30 3265 C 329.236 -3.9783 1.48092 0
M  V30 3266 C 327.143 -4.57108 3.75241 0
M  V30 3267 H 326.073 -0.669712 0.346412 0
M  V30 3268 H 328.724 -1.19534 1.39226 0
M  V30 3269 H 327.106 -3.80539 1.09572 0
M  V30 3270 H 328.28 -2.70151 3.73303 0
M  V30 3271 H 326.595 -2.5676 3.27816 0
M  V30 3272 H 329.192 -4.99217 1.91538 0
M  V30 3273 H 329.535 -4.14078 0.429507 0
M  V30 3274 H 330.068 -3.4495 1.98127 0
M  V30 3275 H 326.807 -4.46065 4.80319 0
M  V30 3276 H 326.327 -5.07111 3.20309 0
M  V30 3277 H 328.006 -5.26069 3.76644 0
M  V30 3278 N 328.138 -0.959301 -1.25041 0
M  V30 3279 C 329.384 -0.617525 -1.9317 0
M  V30 3280 C 329.717 0.843981 -1.74902 0
M  V30 3281 O 328.992 1.60615 -1.09696 0
M  V30 3282 C 329.275 -0.982736 -3.46431 0
M  V30 3283 C 329.128 -2.50032 -3.73904 0
M  V30 3284 C 330.447 -0.511176 -4.37121 0
M  V30 3285 H 327.566 -0.22582 -0.701552 0
M  V30 3286 H 330.208 -1.19679 -1.4757 0
M  V30 3287 H 328.358 -0.489806 -3.854 0
M  V30 3288 H 330.03 -3.06737 -3.44544 0
M  V30 3289 H 328.273 -2.93598 -3.19348 0
M  V30 3290 H 328.944 -2.70635 -4.81103 0
M  V30 3291 H 331.42 -0.934075 -4.0548 0
M  V30 3292 H 330.296 -0.795361 -5.43107 0
M  V30 3293 H 330.557 0.588834 -4.38161 0
M  V30 3294 N 329.616 1.39756 -0.72842 0
M  V30 3295 C 330.564 2.32485 -0.0731849 0
M  V30 3296 C 331.558 1.52717 0.733063 0
M  V30 3297 O 332.764 1.68428 0.634988 0
M  V30 3298 H 329.139 0.751984 -0.00486469 0
M  V30 3299 H 331.11 2.85382 -0.871761 0
M  V30 3300 C 329.859 3.37773 0.824908 0
M  V30 3301 H 329.182 3.99227 0.213915 0
M  V30 3302 H 330.622 4.05121 1.25111 0
M  V30 3303 C 329.081 2.74287 1.95622 0
M  V30 3304 O 329.611 2.61618 3.04826 0
M  V30 3305 N 327.817 2.32475 1.74367 0
M  V30 3306 H 327.364 2.4298 0.855494 0
M  V30 3307 H 327.322 1.90337 2.50238 0
M  V30 3308 N 331.094 0.475555 1.50254 0
M  V30 3309 C 332.371 -0.139685 1.95101 0
M  V30 3310 C 332.751 -1.56555 1.41611 0
M  V30 3311 O 332.099 -2.19956 0.618993 0
M  V30 3312 C 332.309 -0.0784298 3.48912 0
M  V30 3313 C 333.657 -0.265095 4.23772 0
M  V30 3314 O 334.681 -0.154808 3.55863 0
M  V30 3315 O 333.54 -0.488327 5.44314 0
M  V30 3316 H 330.634 -0.109236 0.819754 0
M  V30 3317 H 333.18 0.536276 1.61004 0
M  V30 3318 H 331.952 0.916918 3.80405 0
M  V30 3319 H 331.575 -0.795655 3.89558 0
M  V30 3320 N 332.573 -1.56217 0.208337 0
M  V30 3321 C 333.989 -1.58919 -0.14729 0
M  V30 3322 C 334.189 -1.22486 -1.59998 0
M  V30 3323 O 333.245 -0.953849 -2.3379 0
M  V30 3324 C 334.558 -3.00236 0.167048 0
M  V30 3325 C 336.106 -3.12813 0.108219 0
M  V30 3326 C 336.581 -4.56284 0.396049 0
M  V30 3327 N 338.072 -4.61912 0.345142 0
M  V30 3328 C 338.807 -5.70837 0.541523 0
M  V30 3329 N 338.303 -6.88178 0.798968 0
M  V30 3330 N 340.096 -5.60091 0.474867 0
M  V30 3331 H 332.247 -1.78177 1.15614 0
M  V30 3332 H 334.51 -0.827555 0.462446 0
M  V30 3333 H 334.216 -3.31499 1.1748 0
M  V30 3334 H 334.09 -3.7354 -0.524184 0
M  V30 3335 H 336.477 -2.81354 -0.890157 0
M  V30 3336 H 336.558 -2.41866 0.832729 0
M  V30 3337 H 336.202 -4.88458 1.3918 0
M  V30 3338 H 336.132 -5.25439 -0.349502 0
M  V30 3339 H 338.623 -3.77589 0.153316 0
M  V30 3340 H 338.936 -7.67095 0.93727 0
M  V30 3341 H 337.281 -6.89953 0.836013 0
M  V30 3342 H 340.472 -4.67297 0.274064 0
M  V30 3343 H 340.645 -6.44917 0.631326 0
M  V30 3344 N 334.051 0.0651679 -1.57465 0
M  V30 3345 C 335.291 0.768329 -1.8941 0
M  V30 3346 C 335.655 1.74406 -0.802894 0
M  V30 3347 O 336.856 2.49281 -1.0056 0
M  V30 3348 C 335.127 1.45199 -3.26576 0
M  V30 3349 S 336.686 2.1893 -3.80283 0
M  V30 3350 H 333.504 0.255359 -0.663561 0
M  V30 3351 H 336.106 0.024167 -1.95485 0
M  V30 3352 H 334.81 0.728123 -4.03889 0
M  V30 3353 H 334.341 2.23545 -3.23715 0
M  V30 3354 H 336.356 3.45551 -3.56102 0
M  V30 3355 N 335.529 1.53961 0.336706 0
M  V30 3356 C 336.439 1.85432 1.43708 0
M  V30 3357 C 337.455 0.745053 1.57242 0
M  V30 3358 O 338.631 1.03804 1.72588 0
M  V30 3359 C 335.696 2.06349 2.78605 0
M  V30 3360 C 334.757 3.30191 2.74358 0
M  V30 3361 C 333.99 3.50101 4.02822 0
M  V30 3362 O 334.213 2.7371 5.00439 0
M  V30 3363 O 333.147 4.43547 4.06878 0
M  V30 3364 H 336.973 2.78975 1.20028 0
M  V30 3365 H 334.558 1.39701 0.52952 0
M  V30 3366 H 336.44 2.21513 3.58483 0
M  V30 3367 H 335.115 1.15995 3.02203 0
M  V30 3368 H 334.022 3.20425 1.93078 0
M  V30 3369 H 335.355 4.2056 2.55715 0
M  V30 3370 N 337.007 -0.598083 1.45811 0
M  V30 3371 C 337.94 -1.7223 1.49706 0
M  V30 3372 C 338.918 -1.58732 0.352535 0
M  V30 3373 O 340.102 -1.80162 0.554438 0
M  V30 3374 C 337.229 -3.10148 1.3611 0
M  V30 3375 C 336.275 -3.42209 2.54549 0
M  V30 3376 S 337.108 -3.35989 4.16979 0
M  V30 3377 C 338.264 -4.76471 4.05865 0
M  V30 3378 H 338.497 -1.68665 2.44826 0
M  V30 3379 H 336.03 -0.775541 1.33509 0
M  V30 3380 H 337.988 -3.8972 1.28953 0
M  V30 3381 H 336.649 -3.11219 0.424451 0
M  V30 3382 H 335.842 -4.42652 2.40988 0
M  V30 3383 H 335.444 -2.70173 2.58617 0
M  V30 3384 H 337.736 -5.665 3.71596 0
M  V30 3385 H 338.679 -4.95089 5.06253 0
M  V30 3386 H 339.087 -4.52599 3.37364 0
M  V30 3387 N 338.485 -1.33259 -0.841409 0
M  V30 3388 C 339.762 -1.15174 -1.58096 0
M  V30 3389 C 340.142 0.282858 -2.09196 0
M  V30 3390 O 339.49 1.28151 -1.89181 0
M  V30 3391 C 339.7 -2.1907 -2.71679 0
M  V30 3392 C 341.048 -2.53093 -3.40924 0
M  V30 3393 O 342.072 -2.17717 -2.81918 0
M  V30 3394 O 340.931 -3.1379 -4.47435 0
M  V30 3395 H 338.025 -0.445303 -0.696875 0
M  V30 3396 H 340.571 -1.44833 -0.884385 0
M  V30 3397 H 339.343 -3.15443 -2.31541 0
M  V30 3398 H 338.966 -1.90481 -3.49002 0
M  V30 3399 N 339.963 1.05934 -1.16686 0
M  V30 3400 C 341.24 1.75643 -0.860747 0
M  V30 3401 C 341.62 2.01144 0.640641 0
M  V30 3402 O 340.968 1.64147 1.58959 0
M  V30 3403 C 341.178 3.05493 -1.68745 0
M  V30 3404 C 342.526 3.79581 -1.90271 0
M  V30 3405 O 343.55 3.15344 -1.65641 0
M  V30 3406 O 342.409 4.9499 -2.31618 0
M  V30 3407 H 339.503 0.763426 -0.317977 0
M  V30 3408 H 342.049 1.1217 -1.27342 0
M  V30 3409 H 340.821 2.8264 -2.70611 0
M  V30 3410 H 340.444 3.76702 -1.27206 0
M  V30 3411 N 341.441 0.965919 1.2453 0
M  V30 3412 C 342.689 0.625593 1.92174 0
M  V30 3413 C 343.01 -0.841652 1.75901 0
M  V30 3414 O 342.28 -1.60061 1.12948 0
M  V30 3415 H 340.86 0.228388 0.71123 0
M  V30 3416 H 343.522 1.2266 1.51461 0
M  V30 3417 H 342.618 0.864653 2.99884 0
M  V30 3418 N 342.919 -1.39368 0.735821 0
M  V30 3419 C 343.867 -2.32443 0.0855131 0
M  V30 3420 C 344.861 -1.53104 -0.724954 0
M  V30 3421 O 346.067 -1.68762 -0.626047 0
M  V30 3422 H 342.442 -0.751948 0.00885257 0
M  V30 3423 H 344.413 -2.84916 0.886883 0
M  V30 3424 C 343.162 -3.38206 -0.806983 0
M  V30 3425 H 342.485 -3.99335 -0.19274 0
M  V30 3426 H 343.925 -4.05779 -1.2296 0
M  V30 3427 C 342.384 -2.75321 -1.94165 0
M  V30 3428 O 342.914 -2.63231 -3.03435 0
M  V30 3429 N 341.12 -2.33396 -1.73132 0
M  V30 3430 H 340.667 -2.4343 -0.842596 0
M  V30 3431 H 340.625 -1.91661 -2.49225 0
M  V30 3432 N 344.397 -0.483516 -1.5 0
M  V30 3433 C 345.643 0.0672592 -2.02688 0
M  V30 3434 C 345.976 1.38247 -1.36387 0
M  V30 3435 O 345.251 1.88131 -0.493675 0
M  V30 3436 C 345.534 0.238109 -3.59312 0
M  V30 3437 C 345.387 -1.099 -4.36168 0
M  V30 3438 C 346.706 0.986916 -4.28892 0
M  V30 3439 H 343.825 0.0229696 -0.736642 0
M  V30 3440 H 346.467 -0.631527 -1.79197 0
M  V30 3441 H 344.617 0.8333 -3.79458 0
M  V30 3442 H 346.289 -1.73172 -4.27562 0
M  V30 3443 H 344.532 -1.69261 -3.99416 0
M  V30 3444 H 345.203 -0.932954 -5.44059 0
M  V30 3445 H 347.679 0.482302 -4.13295 0
M  V30 3446 H 346.555 1.07527 -5.38265 0
M  V30 3447 H 346.816 2.0265 -3.92919 0
M  V30 3448 N 345.875 1.56104 -0.216619 0
M  V30 3449 C 347.124 1.97348 0.416744 0
M  V30 3450 C 347.437 1.10715 1.6125 0
M  V30 3451 O 348.643 1.41836 2.31506 0
M  V30 3452 C 347.099 3.51059 0.792835 0
M  V30 3453 C 346.707 4.46387 -0.379828 0
M  V30 3454 C 348.451 4.01026 1.39208 0
M  V30 3455 C 346.358 5.91397 0.0184223 0
M  V30 3456 H 345.288 0.736942 0.159475 0
M  V30 3457 H 347.939 1.80827 -0.31205 0
M  V30 3458 H 346.321 3.63162 1.57891 0
M  V30 3459 H 347.495 4.46029 -1.15737 0
M  V30 3460 H 345.81 4.06734 -0.891979 0
M  V30 3461 H 348.407 5.0686 1.70286 0
M  V30 3462 H 348.75 3.46587 2.30614 0
M  V30 3463 H 349.283 3.92125 0.669537 0
M  V30 3464 H 346.022 6.49807 -0.862002 0
M  V30 3465 H 345.542 5.94961 0.760384 0
M  V30 3466 H 347.221 6.45455 0.446818 0
M  V30 3467 N 347.353 -0.0568162 1.57498 0
M  V30 3468 C 348.581 -0.765626 1.92213 0
M  V30 3469 C 348.996 -1.70353 0.813961 0
M  V30 3470 O 348.353 -1.81268 -0.211701 0
M  V30 3471 C 348.404 -1.5465 3.2675 0
M  V30 3472 O 348.125 -0.646278 4.33307 0
M  V30 3473 C 349.626 -2.35497 3.75574 0
M  V30 3474 H 346.846 -0.216835 0.634999 0
M  V30 3475 H 349.39 -0.0226146 2.04487 0
M  V30 3476 H 347.545 -2.24165 3.15957 0
M  V30 3477 H 347.959 -1.19093 5.108 0
M  V30 3478 H 349.433 -2.85722 4.72299 0
M  V30 3479 H 349.91 -3.15692 3.05344 0
M  V30 3480 H 350.516 -1.7111 3.8936 0
M  V30 3481 N 348.832 -1.54138 -0.328536 0
M  V30 3482 C 350.078 -1.7236 -1.06865 0
M  V30 3483 C 350.411 -0.493231 -1.87832 0
M  V30 3484 O 349.686 0.5098 -1.877 0
M  V30 3485 C 349.969 -2.99621 -1.99747 0
M  V30 3486 C 349.822 -4.32899 -1.22143 0
M  V30 3487 C 351.141 -3.22615 -2.99345 0
M  V30 3488 H 348.26 -0.627151 -0.387105 0
M  V30 3489 H 350.902 -1.86827 -0.345767 0
M  V30 3490 H 349.052 -2.87418 -2.61387 0
M  V30 3491 H 350.724 -4.56978 -0.630017 0
M  V30 3492 H 348.967 -4.30628 -0.523628 0
M  V30 3493 H 349.638 -5.18154 -1.90318 0
M  V30 3494 H 352.114 -3.34248 -2.47826 0
M  V30 3495 H 350.99 -4.13027 -3.61524 0
M  V30 3496 H 351.251 -2.3961 -3.71536 0
M  V30 3497 N 350.31 0.590341 -1.46126 0
M  V30 3498 C 351.587 1.35029 -1.41515 0
M  V30 3499 C 351.967 2.10888 -0.0946472 0
M  V30 3500 O 351.315 2.08998 0.923693 0
M  V30 3501 C 351.525 2.28269 -2.63997 0
M  V30 3502 C 352.873 2.90338 -3.09821 0
M  V30 3503 O 353.897 2.38585 -2.64492 0
M  V30 3504 O 352.756 3.84321 -3.88535 0
M  V30 3505 H 349.85 0.606317 -0.562413 0
M  V30 3506 H 352.396 0.611994 -1.58281 0
M  V30 3507 H 351.168 1.71591 -3.51671 0
M  V30 3508 H 350.791 3.0945 -2.49652 0
M  V30 3509 N 351.788 1.33704 0.83433 0
M  V30 3510 C 352.721 1.18675 1.94914 0
M  V30 3511 C 353.699 0.0811145 1.62398 0
M  V30 3512 O 354.883 0.244186 1.86912 0
M  V30 3513 C 352.01 0.821231 3.28593 0
M  V30 3514 C 351.056 1.93501 3.80079 0
M  V30 3515 S 351.889 3.54671 4.01209 0
M  V30 3516 C 353.045 3.20136 5.37833 0
M  V30 3517 H 353.278 2.13043 2.07364 0
M  V30 3518 H 350.811 1.18598 0.988624 0
M  V30 3519 H 352.769 0.617123 4.05835 0
M  V30 3520 H 351.43 -0.103927 3.13928 0
M  V30 3521 H 350.623 1.63273 4.76821 0
M  V30 3522 H 350.225 2.09601 3.09747 0
M  V30 3523 H 352.517 2.71242 6.20833 0
M  V30 3524 H 353.46 4.15975 5.73036 0
M  V30 3525 H 353.868 2.56613 5.02802 0
M  V30 3526 N 353.266 -1.05314 1.17247 0
M  V30 3527 C 354.214 -2.15137 0.884238 0
M  V30 3528 C 355.208 -1.68729 -0.15063 0
M  V30 3529 O 356.414 -1.8 -0.00366673 0
M  V30 3530 H 352.789 -0.702471 0.2684 0
M  V30 3531 H 354.76 -2.36652 1.81764 0
M  V30 3532 C 353.509 -3.45243 0.412659 0
M  V30 3533 H 352.832 -3.81352 1.20043 0
M  V30 3534 H 354.272 -4.23263 0.249858 0
M  V30 3535 C 352.731 -3.25487 -0.86948 0
M  V30 3536 O 353.261 -3.51938 -1.93655 0
M  V30 3537 N 351.467 -2.78875 -0.817147 0
M  V30 3538 H 351.014 -2.57549 0.0514211 0
M  V30 3539 H 350.972 -2.66036 -1.67547 0
M  V30 3540 N 354.744 -0.972509 -1.24016 0
M  V30 3541 C 355.969 -0.654417 -1.96805 0
M  V30 3542 C 356.394 0.770398 -1.716 0
M  V30 3543 O 355.752 1.52361 -0.982647 0
M  V30 3544 C 355.8 -0.941031 -3.48105 0
M  V30 3545 O 354.904 -0.0289472 -4.1239 0
M  V30 3546 H 354.245 -0.24692 -0.616382 0
M  V30 3547 H 356.775 -1.30396 -1.57664 0
M  V30 3548 H 356.785 -0.87452 -3.98517 0
M  V30 3549 H 355.46 -1.97939 -3.65777 0
M  V30 3550 H 354.037 -0.149192 -3.72601 0
M  V30 3551 N 356.222 1.38976 -0.743202 0
M  V30 3552 C 357.447 2.05161 -0.303936 0
M  V30 3553 C 357.872 1.55677 1.05576 0
M  V30 3554 O 357.23 0.704131 1.67068 0
M  V30 3555 C 357.278 3.59138 -0.324373 0
M  V30 3556 O 356.382 4.06668 0.685204 0
M  V30 3557 H 355.723 0.649815 -0.136518 0
M  V30 3558 H 358.253 1.77852 -1.01142 0
M  V30 3559 H 358.263 4.07639 -0.171618 0
M  V30 3560 H 356.938 3.94515 -1.31647 0
M  V30 3561 H 355.515 3.69561 0.497913 0
M  V30 3562 N 357.7 0.491464 1.49741 0
M  V30 3563 C 358.928 -0.0535151 2.06831 0
M  V30 3564 C 359.343 -1.31683 1.35296 0
M  V30 3565 O 358.7 -1.77402 0.42836 0
M  V30 3566 C 358.751 -0.320835 3.60073 0
M  V30 3567 O 358.472 0.892394 4.28915 0
M  V30 3568 C 359.973 -0.910519 4.33848 0
M  V30 3569 H 357.193 0.0161909 0.670805 0
M  V30 3570 H 359.737 0.68609 1.92647 0
M  V30 3571 H 357.892 -1.0104 3.73991 0
M  V30 3572 H 358.306 0.649401 5.20464 0
M  V30 3573 H 359.78 -1.04721 5.41976 0
M  V30 3574 H 360.257 -1.90589 3.95692 0
M  V30 3575 H 360.863 -0.258712 4.24512 0
M  V30 3576 N 359.178 -1.55987 0.224894 0
M  V30 3577 C 360.455 -1.90232 -0.455083 0
M  V30 3578 C 360.835 -1.14269 -1.77499 0
M  V30 3579 O 360.183 -0.253079 -2.27094 0
M  V30 3580 C 360.393 -3.42993 -0.644758 0
M  V30 3581 C 361.741 -4.13821 -0.950669 0
M  V30 3582 O 362.765 -3.4861 -0.731423 0
M  V30 3583 O 361.624 -5.29128 -1.36695 0
M  V30 3584 H 358.718 -0.79108 -0.241084 0
M  V30 3585 H 361.264 -1.67581 0.267327 0
M  V30 3586 H 360.036 -3.90252 0.28613 0
M  V30 3587 H 359.659 -3.71434 -1.41853 0
M  V30 3588 N 360.656 0.0484629 -1.57525 0
M  V30 3589 C 361.933 0.777447 -1.79486 0
M  V30 3590 C 362.313 1.94597 -0.818251 0
M  V30 3591 O 361.661 2.28047 0.143767 0
M  V30 3592 C 361.871 1.22864 -3.26658 0
M  V30 3593 C 363.219 1.65251 -3.91123 0
M  V30 3594 O 364.243 1.32372 -3.3069 0
M  V30 3595 O 363.102 2.26207 -4.97486 0
M  V30 3596 H 360.196 0.374357 -0.737419 0
M  V30 3597 H 362.742 0.0267359 -1.69679 0
M  V30 3598 H 361.514 0.393589 -3.89316 0
M  V30 3599 H 361.137 2.03996 -3.41279 0
M  V30 3600 N 362.134 1.5431 0.320358 0
M  V30 3601 C 363.359 1.76954 1.08175 0
M  V30 3602 C 363.784 0.518193 1.80821 0
M  V30 3603 O 363.142 -0.530411 1.73368 0
M  V30 3604 C 363.19 2.96451 2.05303 0
M  V30 3605 O 362.294 2.68221 3.13259 0
M  V30 3606 H 361.635 0.586275 0.311733 0
M  V30 3607 H 364.165 2.01342 0.363676 0
M  V30 3608 H 364.175 3.23887 2.48116 0
M  V30 3609 H 362.85 3.87196 1.51829 0
M  V30 3610 H 361.427 2.51744 2.75099 0
M  V30 3611 N 363.613 -0.582584 1.46437 0
M  V30 3612 C 364.56 -1.69164 1.5701 0
M  V30 3613 C 365.53 -1.60847 0.414403 0
M  V30 3614 O 366.715 -1.80058 0.631171 0
M  V30 3615 C 363.855 -3.075 1.56646 0
M  V30 3616 C 362.968 -3.2644 2.82951 0
M  V30 3617 C 362.103 -4.55026 2.7409 0
M  V30 3618 C 361.142 -4.6731 3.95333 0
M  V30 3619 N 360.279 -5.87221 3.84858 0
M  V30 3620 H 365.119 -1.59464 2.51744 0
M  V30 3621 H 362.656 -0.777186 1.24893 0
M  V30 3622 H 364.614 -3.8757 1.5442 0
M  V30 3623 H 363.244 -3.16096 0.654439 0
M  V30 3624 H 362.296 -2.39974 2.95155 0
M  V30 3625 H 363.608 -3.31385 3.72808 0
M  V30 3626 H 362.762 -5.43324 2.6997 0
M  V30 3627 H 361.501 -4.52519 1.81873 0
M  V30 3628 H 360.506 -3.77429 3.99784 0
M  V30 3629 H 361.731 -4.71595 4.88646 0
M  V30 3630 H 359.677 -5.85712 2.95427 0
M  V30 3631 H 359.594 -5.93435 4.6837 0
M  V30 3632 H 360.862 -6.7795 3.84713 0
M  V30 3633 N 365.091 -1.34144 -0.827227 0
M  V30 3634 C 366.319 -1.29325 -1.61501 0
M  V30 3635 C 366.734 0.13354 -1.88327 0
M  V30 3636 O 366.091 1.0793 -1.47164 0
M  V30 3637 C 366.142 -2.07746 -2.95844 0
M  V30 3638 O 365.863 -3.4486 -2.70191 0
M  V30 3639 C 367.364 -2.10273 -3.90256 0
M  V30 3640 H 364.584 -0.445069 -0.50215 0
M  V30 3641 H 367.128 -1.76693 -1.02955 0
M  V30 3642 H 365.283 -1.6403 -3.5096 0
M  V30 3643 H 365.697 -3.85345 -3.55822 0
M  V30 3644 H 367.171 -2.69575 -4.81698 0
M  V30 3645 H 367.648 -1.096 -4.25305 0
M  V30 3646 H 368.254 -2.54059 -3.41078 0
M  V30 3647 N 366.569 1.04691 -1.17803 0
M  V30 3648 C 367.797 1.81446 -0.99423 0
M  V30 3649 C 368.212 1.83174 0.457459 0
M  V30 3650 O 367.569 1.26265 1.31771 0
M  V30 3651 C 367.62 3.27334 -1.5341 0
M  V30 3652 O 367.341 3.25798 -2.92895 0
M  V30 3653 C 368.842 4.20759 -1.39559 0
M  V30 3654 H 366.062 0.571599 -0.351447 0
M  V30 3655 H 368.606 1.31982 -1.56208 0
M  V30 3656 H 366.761 3.74052 -1.00815 0
M  V30 3657 H 367.175 4.17144 -3.17949 0
M  V30 3658 H 368.649 5.21084 -1.82141 0
M  V30 3659 H 369.126 4.37856 -0.343394 0
M  V30 3660 H 369.732 3.79901 -1.91195 0
M  V30 3661 N 368.047 0.979072 1.23499 0
M  V30 3662 C 369.458 0.684391 1.73704 0
M  V30 3663 C 369.809 -0.799448 1.79174 0
M  V30 3664 O 368.934 -1.62531 1.42873 0
M  V30 3665 C 369.529 1.23564 3.15464 0
M  V30 3666 C 368.088 0.99063 3.6313 0
M  V30 3667 C 367.235 1.36416 2.41425 0
M  V30 3668 H 370.186 1.15307 1.09041 0
M  V30 3669 H 370.207 0.607417 3.7562 0
M  V30 3670 H 369.719 2.31561 3.1145 0
M  V30 3671 H 367.82 -0.0733136 3.72528 0
M  V30 3672 H 367.933 1.64427 4.5 0
M  V30 3673 H 366.297 0.782616 2.42378 0
M  V30 3674 H 367.08 2.45387 2.40083 0
M  V30 3675 N 369.525 -1.3858 0.750561 0
M  V30 3676 C 370.772 -2.00184 0.305373 0
M  V30 3677 C 371.1 -1.59575 -1.11203 0
M  V30 3678 O 370.355 -0.823236 -1.77542 0
M  V30 3679 C 370.654 -3.55455 0.372373 0
M  V30 3680 C 370.32 -4.15765 1.745 0
M  V30 3681 C 368.982 -4.31951 2.12065 0
M  V30 3682 C 371.334 -4.49067 2.64553 0
M  V30 3683 C 368.662 -4.78734 3.39162 0
M  V30 3684 C 371.014 -4.97265 3.91038 0
M  V30 3685 C 369.678 -5.11658 4.28676 0
M  V30 3686 H 368.948 -0.732526 0.111744 0
M  V30 3687 H 371.595 -1.65673 0.960451 0
M  V30 3688 H 369.9 -3.90084 -0.366272 0
M  V30 3689 H 371.597 -4.00999 0.00953918 0
M  V30 3690 H 368.187 -4.03579 1.44297 0
M  V30 3691 H 372.371 -4.36166 2.36796 0
M  V30 3692 H 367.627 -4.88062 3.68246 0
M  V30 3693 H 371.801 -5.22003 4.60962 0
M  V30 3694 H 369.428 -5.47668 5.27222 0
M  V30 3695 N 371.003 -0.499398 -1.49478 0
M  V30 3696 C 372.419 -0.155261 -1.58843 0
M  V30 3697 C 372.619 1.34008 -1.50479 0
M  V30 3698 O 371.675 2.11589 -1.37791 0
M  V30 3699 C 372.988 -0.730636 -2.91689 0
M  V30 3700 C 374.536 -0.696599 -3.0515 0
M  V30 3701 C 375.011 -1.25001 -4.40612 0
M  V30 3702 N 376.502 -1.21064 -4.47099 0
M  V30 3703 C 377.237 -1.60905 -5.50361 0
M  V30 3704 N 376.733 -2.08331 -6.60735 0
M  V30 3705 N 378.526 -1.52331 -5.41065 0
M  V30 3706 H 370.677 -1.47162 -1.53158 0
M  V30 3707 H 372.94 -0.610309 -0.725415 0
M  V30 3708 H 372.646 -1.77928 -3.03372 0
M  V30 3709 H 372.52 -0.190161 -3.7672 0
M  V30 3710 H 374.907 0.343204 -2.93097 0
M  V30 3711 H 374.988 -1.2742 -2.21806 0
M  V30 3712 H 374.632 -2.28859 -4.53416 0
M  V30 3713 H 374.562 -0.64836 -5.22593 0
M  V30 3714 H 377.053 -0.863128 -3.67911 0
M  V30 3715 H 377.366 -2.36805 -7.35624 0
M  V30 3716 H 375.711 -2.12304 -6.6178 0
M  V30 3717 H 378.902 -1.151 -4.53729 0
M  V30 3718 H 379.075 -1.83704 -6.21415 0
M  V30 3719 N 372.481 1.55866 -0.233164 0
M  V30 3720 C 373.728 1.98603 0.395374 0
M  V30 3721 C 374.056 1.12105 1.58942 0
M  V30 3722 O 373.311 0.168656 1.94972 0
M  V30 3723 C 373.61 3.46856 0.861724 0
M  V30 3724 C 373.276 4.50348 -0.223066 0
M  V30 3725 C 371.938 4.78371 -0.521038 0
M  V30 3726 C 374.29 5.12355 -0.956124 0
M  V30 3727 C 371.618 5.6568 -1.55638 0
M  V30 3728 C 373.97 6.00786 -1.98089 0
M  V30 3729 C 372.634 6.27148 -2.28565 0
M  V30 3730 H 371.904 0.726739 0.144677 0
M  V30 3731 H 374.551 1.88491 -0.338114 0
M  V30 3732 H 372.856 3.5423 1.67418 0
M  V30 3733 H 374.553 3.77302 1.35809 0
M  V30 3734 H 371.143 4.28596 0.0193234 0
M  V30 3735 H 375.327 4.90765 -0.739166 0
M  V30 3736 H 370.583 5.84365 -1.798 0
M  V30 3737 H 374.757 6.4788 -2.55391 0
M  V30 3738 H 372.384 6.94597 -3.08932 0
M  V30 3739 N 373.959 -0.0401083 1.57549 0
M  V30 3740 C 374.922 -1.02871 2.04817 0
M  V30 3741 C 375.922 -1.29708 0.950388 0
M  V30 3742 O 377.112 -1.24897 1.21435 0
M  V30 3743 C 374.244 -2.36443 2.45576 0
M  V30 3744 H 375.437 -0.620631 2.93408 0
M  V30 3745 H 372.99 -0.286667 1.53649 0
M  V30 3746 H 373.725 -2.82021 1.60108 0
M  V30 3747 H 373.51 -2.18296 3.25713 0
M  V30 3748 H 375 -3.07441 2.82612 0
M  V30 3749 N 375.437 -1.54477 -0.31217 0
M  V30 3750 C 376.677 -1.74958 -1.05684 0
M  V30 3751 C 377.041 -0.518414 -1.84869 0
M  V30 3752 O 378.242 -0.600759 -2.62001 0
M  V30 3753 C 376.513 -2.99656 -1.94785 0
M  V30 3754 S 378.072 -3.4109 -2.76049 0
M  V30 3755 H 374.89 -0.615104 -0.356606 0
M  V30 3756 H 377.492 -1.92669 -0.331514 0
M  V30 3757 H 376.196 -3.87397 -1.35468 0
M  V30 3758 H 375.727 -2.845 -2.71704 0
M  V30 3759 H 377.742 -2.97283 -3.97287 0
M  V30 3760 N 376.915 0.57481 -1.46744 0
M  V30 3761 C 378.326 1.15695 -1.46532 0
M  V30 3762 C 378.677 1.95068 -0.210425 0
M  V30 3763 O 377.802 2.05241 0.685944 0
M  V30 3764 C 378.397 2.1048 -2.65487 0
M  V30 3765 C 376.956 2.64002 -2.68291 0
M  V30 3766 C 376.103 1.40026 -2.39349 0
M  V30 3767 H 379.054 0.362325 -1.54509 0
M  V30 3768 H 379.075 2.94074 -2.41455 0
M  V30 3769 H 378.587 1.52683 -3.56805 0
M  V30 3770 H 376.688 3.25646 -1.81067 0
M  V30 3771 H 376.801 3.06197 -3.68483 0
M  V30 3772 H 375.165 1.70106 -1.89568 0
M  V30 3773 H 375.948 0.840485 -3.32852 0
M  V30 3774 N 378.394 1.34581 0.820102 0
M  V30 3775 C 379.622 1.3018 1.60813 0
M  V30 3776 C 380.037 -0.123551 1.88395 0
M  V30 3777 O 379.394 -1.07148 1.47735 0
M  V30 3778 C 379.445 2.09312 2.94739 0
M  V30 3779 O 379.166 3.46288 2.68358 0
M  V30 3780 C 380.667 2.1234 3.89136 0
M  V30 3781 H 377.887 0.447726 0.499782 0
M  V30 3782 H 380.431 1.77237 1.02017 0
M  V30 3783 H 378.586 1.65889 3.50085 0
M  V30 3784 H 379 3.87227 3.53774 0
M  V30 3785 H 380.474 2.72126 4.80262 0
M  V30 3786 H 380.951 1.11854 4.24718 0
M  V30 3787 H 381.557 2.55864 3.39726 0
M  V30 3788 N 379.872 -1.04064 1.18357 0
M  V30 3789 C 380.82 -2.14187 0.907007 0
M  V30 3790 C 381.814 -1.68879 -0.132725 0
M  V30 3791 O 383.02 -1.79993 0.0154248 0
M  V30 3792 H 379.395 -0.699585 0.275835 0
M  V30 3793 H 381.366 -2.34711 1.84264 0
M  V30 3794 C 380.115 -3.44785 0.449254 0
M  V30 3795 H 379.438 -3.80058 1.24081 0
M  V30 3796 H 380.878 -4.22974 0.294737 0
M  V30 3797 C 379.337 -3.26391 -0.834909 0
M  V30 3798 O 379.867 -3.53973 -1.89911 0
M  V30 3799 N 378.073 -2.79726 -0.787523 0
M  V30 3800 H 377.62 -2.5748 0.0787347 0
M  V30 3801 H 377.578 -2.67798 -1.64716 0
M  V30 3802 N 381.35 -0.985608 -1.22978 0
M  V30 3803 C 382.578 -0.675582 -1.95559 0
M  V30 3804 C 382.993 0.758413 -1.72897 0
M  V30 3805 O 382.35 1.51094 -1.02357 0
M  V30 3806 C 382.401 -0.96293 -3.48439 0
M  V30 3807 O 382.122 -2.34057 -3.70336 0
M  V30 3808 C 383.623 -0.669585 -4.38214 0
M  V30 3809 H 380.843 -0.250523 -0.622478 0
M  V30 3810 H 383.387 -1.3184 -1.56328 0
M  V30 3811 H 381.542 -0.366033 -3.85667 0
M  V30 3812 H 381.956 -2.43424 -4.64591 0
M  V30 3813 H 383.43 -0.920967 -5.44263 0
M  V30 3814 H 383.907 0.396383 -4.37408 0
M  V30 3815 H 384.513 -1.2472 -4.06602 0
M  V30 3816 N 382.828 1.3818 -0.7579 0
M  V30 3817 C 384.058 2.04004 -0.326463 0
M  V30 3818 C 384.466 1.57286 1.05156 0
M  V30 3819 O 383.809 0.743144 1.67997 0
M  V30 3820 C 383.871 3.58444 -0.275402 0
M  V30 3821 C 383.535 4.28237 -1.59569 0
M  V30 3822 C 384.532 4.53312 -2.54566 0
M  V30 3823 C 382.217 4.66341 -1.86631 0
M  V30 3824 C 384.211 5.15531 -3.74842 0
M  V30 3825 C 381.898 5.28283 -3.0718 0
M  V30 3826 C 382.896 5.52814 -4.01106 0
M  V30 3827 O 382.584 6.13465 -5.19534 0
M  V30 3828 H 382.316 0.662026 -0.136739 0
M  V30 3829 H 384.87 1.7777 -1.02893 0
M  V30 3830 H 383.1 3.83667 0.483337 0
M  V30 3831 H 384.789 4.05701 0.127099 0
M  V30 3832 H 385.555 4.24299 -2.34936 0
M  V30 3833 H 381.434 4.46591 -1.14358 0
M  V30 3834 H 384.978 5.34594 -4.48168 0
M  V30 3835 H 380.875 5.56719 -3.26702 0
M  V30 3836 H 381.643 6.31951 -5.20173 0
M  V30 3837 N 384.306 0.507319 1.49211 0
M  V30 3838 C 385.253 -0.267728 2.29242 0
M  V30 3839 C 386.223 -0.954609 1.35928 0
M  V30 3840 O 387.408 -0.960046 1.64887 0
M  V30 3841 C 384.548 -1.32243 3.18756 0
M  V30 3842 C 383.661 -0.64669 4.27132 0
M  V30 3843 C 382.796 -1.68238 5.03855 0
M  V30 3844 C 381.835 -0.98885 6.0406 0
M  V30 3845 N 380.972 -1.96903 6.73924 0
M  V30 3846 H 385.812 0.420968 2.95012 0
M  V30 3847 H 383.349 0.219443 1.45454 0
M  V30 3848 H 385.307 -1.94599 3.69036 0
M  V30 3849 H 383.937 -1.97981 2.54958 0
M  V30 3850 H 382.989 0.0902926 3.80293 0
M  V30 3851 H 384.301 -0.101058 4.98698 0
M  V30 3852 H 383.455 -2.38081 5.58034 0
M  V30 3853 H 382.194 -2.26187 4.32077 0
M  V30 3854 H 381.199 -0.276222 5.49106 0
M  V30 3855 H 382.424 -0.415767 6.77826 0
M  V30 3856 H 380.37 -2.53803 6.04913 0
M  V30 3857 H 380.287 -1.47423 7.41487 0
M  V30 3858 H 381.555 -2.66015 7.32705 0
M  V30 3859 N 385.784 -1.5574 0.241426 0
M  V30 3860 C 386.716 -2.18469 -0.693091 0
M  V30 3861 C 387.729 -1.15942 -1.14286 0
M  V30 3862 O 388.918 -1.42832 -1.07058 0
M  V30 3863 C 386.018 -2.7696 -1.95311 0
M  V30 3864 C 385.191 -4.04853 -1.65568 0
M  V30 3865 C 384.25 -4.47715 -2.76474 0
M  V30 3866 O 383.276 -5.14205 -2.44094 0
M  V30 3867 N 384.478 -4.15044 -4.05855 0
M  V30 3868 H 387.243 -2.99292 -0.156388 0
M  V30 3869 H 384.804 -1.61784 0.0611752 0
M  V30 3870 H 386.796 -3.02594 -2.68736 0
M  V30 3871 H 385.366 -2.00326 -2.39975 0
M  V30 3872 H 384.586 -3.86865 -0.756886 0
M  V30 3873 H 385.874 -4.88246 -1.43153 0
M  V30 3874 H 385.272 -3.61654 -4.34998 0
M  V30 3875 H 383.829 -4.45526 -4.75762 0
M  V30 3876 N 387.262 0.0317525 -1.57568 0
M  V30 3877 C 388.508 0.724175 -1.8943 0
M  V30 3878 C 388.841 1.75149 -0.838836 0
M  V30 3879 O 388.116 1.93948 0.146422 0
M  V30 3880 C 388.399 1.39615 -3.31933 0
M  V30 3881 C 388.252 0.382537 -4.4817 0
M  V30 3882 C 389.571 2.33084 -3.73309 0
M  V30 3883 H 386.69 0.261797 -0.688935 0
M  V30 3884 H 389.332 -0.013017 -1.89996 0
M  V30 3885 H 387.482 2.02451 -3.31581 0
M  V30 3886 H 389.154 -0.243689 -4.60656 0
M  V30 3887 H 387.397 -0.29844 -4.32772 0
M  V30 3888 H 388.068 0.891145 -5.44759 0
M  V30 3889 H 390.544 1.80295 -3.7501 0
M  V30 3890 H 389.42 2.77084 -4.73831 0
M  V30 3891 H 389.681 3.19643 -3.05419 0
M  V30 3892 N 388.74 1.54641 0.303973 0
M  V30 3893 C 389.688 1.86137 1.39484 0
M  V30 3894 C 390.682 0.734854 1.52631 0
M  V30 3895 O 391.888 0.918803 1.54784 0
M  V30 3896 H 388.263 0.590324 0.465856 0
M  V30 3897 H 390.234 2.77324 1.10154 0
M  V30 3898 C 388.983 2.12274 2.75382 0
M  V30 3899 H 388.306 2.98429 2.66046 0
M  V30 3900 H 389.746 2.38254 3.5073 0
M  V30 3901 C 388.205 0.920365 3.24085 0
M  V30 3902 O 388.735 0.139377 4.01458 0
M  V30 3903 N 386.941 0.726566 2.81371 0
M  V30 3904 H 386.488 1.36332 2.18567 0
M  V30 3905 H 386.446 -0.0763799 3.14307 0
M  V30 3906 N 390.218 -0.567019 1.47046 0
M  V30 3907 C 391.466 -1.322 1.52864 0
M  V30 3908 C 391.787 -1.94088 0.188388 0
M  V30 3909 O 391.057 -1.7941 -0.786693 0
M  V30 3910 H 389.637 -0.490894 0.563056 0
M  V30 3911 H 392.299 -0.662879 1.83281 0
M  V30 3912 H 391.395 -2.12062 2.2899 0
M  V30 3913 N 391.696 -1.35014 -0.812953 0
M  V30 3914 C 392.659 -1.27292 -1.90602 0
M  V30 3915 C 393.659 -0.185817 -1.59723 0
M  V30 3916 O 394.849 -0.439102 -1.68575 0
M  V30 3917 C 391.981 -0.967676 -3.26877 0
M  V30 3918 H 393.174 -2.24479 -1.9887 0
M  V30 3919 H 390.727 -1.19446 -1.00808 0
M  V30 3920 H 391.462 0.0005954 -3.243 0
M  V30 3921 H 391.247 -1.75412 -3.50675 0
M  V30 3922 H 392.737 -0.939085 -4.06904 0
M  V30 3923 N 393.175 1.03435 -1.18907 0
M  V30 3924 C 394.405 1.8012 -1.01195 0
M  V30 3925 C 394.813 1.8395 0.442613 0
M  V30 3926 O 394.156 1.27836 1.31923 0
M  V30 3927 C 394.218 3.26792 -1.49823 0
M  V30 3928 C 393.882 3.46609 -2.97844 0
M  V30 3929 C 394.879 3.37278 -3.95651 0
M  V30 3930 C 392.564 3.73001 -3.36416 0
M  V30 3931 C 394.558 3.54054 -5.30023 0
M  V30 3932 C 392.245 3.89423 -4.70949 0
M  V30 3933 C 393.243 3.79951 -5.67562 0
M  V30 3934 O 392.931 3.95895 -6.99659 0
M  V30 3935 H 392.663 0.573865 -0.357289 0
M  V30 3936 H 395.217 1.31207 -1.58031 0
M  V30 3937 H 393.447 3.76703 -0.873578 0
M  V30 3938 H 395.136 3.85055 -1.28404 0
M  V30 3939 H 395.902 3.16846 -3.67197 0
M  V30 3940 H 391.781 3.79469 -2.61772 0
M  V30 3941 H 395.325 3.46577 -6.05417 0
M  V30 3942 H 391.222 4.09351 -4.99101 0
M  V30 3943 H 391.99 4.13019 -7.06653 0
M  V30 3944 N 394.653 0.992116 1.22453 0
M  V30 3945 C 395.878 0.685644 1.95739 0
M  V30 3946 C 396.303 -0.743 1.72804 0
M  V30 3947 O 395.661 -1.50778 1.00676 0
M  V30 3948 C 395.709 0.996293 3.46564 0
M  V30 3949 O 394.813 0.0945512 4.12292 0
M  V30 3950 H 394.154 0.256694 0.612376 0
M  V30 3951 H 396.684 1.32888 1.5557 0
M  V30 3952 H 396.694 0.93781 3.97076 0
M  V30 3953 H 395.369 2.03733 3.62582 0
M  V30 3954 H 393.946 0.208451 3.72317 0
M  V30 3955 N 396.131 -1.37776 0.765217 0
M  V30 3956 C 397.542 -1.82521 0.392819 0
M  V30 3957 C 397.893 -1.63789 -1.08017 0
M  V30 3958 O 397.018 -1.14542 -1.83601 0
M  V30 3959 C 397.613 -3.31358 0.706214 0
M  V30 3960 C 396.172 -3.74406 0.386952 0
M  V30 3961 C 395.319 -2.60394 0.953422 0
M  V30 3962 H 398.27 -1.2634 0.960412 0
M  V30 3963 H 398.291 -3.80498 -0.0114706 0
M  V30 3964 H 397.803 -3.44959 1.77833 0
M  V30 3965 H 395.904 -3.66377 -0.678112 0
M  V30 3966 H 396.017 -4.70749 0.890636 0
M  V30 3967 H 394.381 -2.51878 0.378064 0
M  V30 3968 H 395.164 -2.76791 2.03081 0
M  V30 3969 N 397.609 -0.515225 -1.4894 0
M  V30 3970 C 398.539 0.244628 -2.32215 0
M  V30 3971 C 399.52 0.949136 -1.41157 0
M  V30 3972 O 400.705 0.937783 -1.70057 0
M  V30 3973 C 397.835 1.30096 -3.22013 0
M  V30 3974 C 396.789 0.715486 -4.21977 0
M  V30 3975 C 396.115 1.87339 -5.00808 0
M  V30 3976 C 397.415 -0.302982 -5.2142 0
M  V30 3977 H 399.109 -0.450501 -2.95991 0
M  V30 3978 H 396.655 -0.218098 -1.42339 0
M  V30 3979 H 398.608 1.84037 -3.79089 0
M  V30 3980 H 397.332 2.02547 -2.56207 0
M  V30 3981 H 395.991 0.197715 -3.66066 0
M  V30 3982 H 395.639 2.58592 -4.31438 0
M  V30 3983 H 395.339 1.48764 -5.68457 0
M  V30 3984 H 396.863 2.41686 -5.60732 0
M  V30 3985 H 398.277 0.148802 -5.73107 0
M  V30 3986 H 396.674 -0.60532 -5.97039 0
M  V30 3987 H 397.744 -1.21395 -4.69459 0
M  V30 3988 N 399.087 1.5561 -0.249682 0
M  V30 3989 C 400.035 2.22894 0.664906 0
M  V30 3990 C 401.029 1.21743 1.17792 0
M  V30 3991 O 402.235 1.39748 1.13449 0
M  V30 3992 H 398.61 0.715022 0.232912 0
M  V30 3993 H 400.581 2.98307 0.0742998 0
M  V30 3994 C 399.33 2.94424 1.84959 0
M  V30 3995 H 398.653 3.72031 1.46399 0
M  V30 3996 H 400.093 3.44862 2.4667 0
M  V30 3997 C 398.552 1.98454 2.72245 0
M  V30 3998 O 399.082 1.51939 3.71857 0
M  V30 3999 N 397.288 1.65496 2.38871 0
M  V30 4000 H 396.835 2.03517 1.57919 0
M  V30 4001 H 396.793 1.0155 2.97548 0
M  V30 4002 N 400.565 -0.0233959 1.57583 0
M  V30 4003 C 401.842 -0.748794 1.807 0
M  V30 4004 C 402.222 -1.9327 0.849106 0
M  V30 4005 O 401.57 -2.28247 -0.107468 0
M  V30 4006 C 401.78 -1.17651 3.28571 0
M  V30 4007 C 403.128 -1.59008 3.93702 0
M  V30 4008 O 404.152 -1.27094 3.32755 0
M  V30 4009 O 403.011 -2.18264 5.01022 0
M  V30 4010 H 400.105 -0.362578 0.743281 0
M  V30 4011 H 402.651 0.000261958 1.697 0
M  V30 4012 H 401.423 -0.331603 3.89892 0
M  V30 4013 H 401.046 -1.98541 3.44481 0
M  V30 4014 N 402.043 -1.548 -0.295768 0
M  V30 4015 C 403.006 -1.85363 -1.34808 0
M  V30 4016 C 404.006 -0.726817 -1.43436 0
M  V30 4017 O 405.196 -0.995088 -1.42981 0
M  V30 4018 C 402.328 -2.03859 -2.73229 0
M  V30 4019 H 403.521 -2.7941 -1.08949 0
M  V30 4020 H 401.074 -1.46942 -0.532702 0
M  V30 4021 H 401.809 -1.12117 -3.04303 0
M  V30 4022 H 401.594 -2.8588 -2.68356 0
M  V30 4023 H 403.084 -2.28857 -3.49305 0
M  V30 4024 N 403.521 0.559213 -1.47345 0
M  V30 4025 C 404.471 1.66192 -1.5609 0
M  V30 4026 C 405.455 1.55323 -0.419957 0
M  V30 4027 O 406.647 1.63839 -0.669762 0
M  V30 4028 C 403.776 3.0497 -1.57634 0
M  V30 4029 C 402.862 3.2105 -2.77106 0
M  V30 4030 N 403.253 3.07203 -4.01821 0
M  V30 4031 C 401.551 3.52046 -2.73825 0
M  V30 4032 C 402.252 3.25919 -4.81821 0
M  V30 4033 N 401.228 3.52161 -4.14106 0
M  V30 4034 H 405.03 1.54052 -2.5029 0
M  V30 4035 H 402.544 0.763914 -1.43311 0
M  V30 4036 H 404.541 3.84142 -1.61989 0
M  V30 4037 H 403.201 3.18224 -0.645281 0
M  V30 4038 H 404.212 2.84572 -4.32711 0
M  V30 4039 H 400.889 3.71839 -1.89848 0
M  V30 4040 H 402.279 3.20198 -5.90697 0
M  V30 4041 N 404.999 1.35443 0.805782 0
M  V30 4042 C 406.246 1.28761 1.56291 0
M  V30 4043 C 406.574 -0.137747 1.94012 0
M  V30 4044 O 405.829 -1.1032 1.61642 0
M  V30 4045 C 406.128 2.14045 2.86216 0
M  V30 4046 C 405.794 3.62826 2.67709 0
M  V30 4047 C 404.456 4.0338 2.6237 0
M  V30 4048 C 406.808 4.57227 2.50186 0
M  V30 4049 C 404.136 5.36501 2.37451 0
M  V30 4050 C 406.488 5.90547 2.26797 0
M  V30 4051 C 405.152 6.30245 2.1988 0
M  V30 4052 H 404.422 0.471171 0.571908 0
M  V30 4053 H 407.069 1.67347 0.930974 0
M  V30 4054 H 405.374 1.68342 3.53791 0
M  V30 4055 H 407.071 2.0621 3.43917 0
M  V30 4056 H 403.661 3.30644 2.72713 0
M  V30 4057 H 407.845 4.2678 2.53323 0
M  V30 4058 H 403.101 5.66259 2.30567 0
M  V30 4059 H 407.275 6.63274 2.12228 0
M  V30 4060 H 404.902 7.33328 2.00333 0
M  V30 4061 N 406.477 -1.02803 1.19454 0
M  V30 4062 C 407.724 -1.76217 0.997693 0
M  V30 4063 C 408.052 -1.887 -0.47144 0
M  V30 4064 O 407.307 -1.4011 -1.3663 0
M  V30 4065 C 407.606 -3.18941 1.6128 0
M  V30 4066 C 407.272 -3.26463 3.11019 0
M  V30 4067 C 405.934 -3.28223 3.51885 0
M  V30 4068 C 408.286 -3.25542 4.07028 0
M  V30 4069 C 405.614 -3.26719 4.8731 0
M  V30 4070 C 407.966 -3.25579 5.42385 0
M  V30 4071 C 406.63 -3.25637 5.82681 0
M  V30 4072 H 405.9 -0.644823 0.365082 0
M  V30 4073 H 408.547 -1.20655 1.4871 0
M  V30 4074 H 406.852 -3.77587 1.04572 0
M  V30 4075 H 408.549 -3.74415 1.43577 0
M  V30 4076 H 405.139 -3.25822 2.78457 0
M  V30 4077 H 409.323 -3.23362 3.76498 0
M  V30 4078 H 404.579 -3.25089 5.1781 0
M  V30 4079 H 408.753 -3.23817 6.16535 0
M  V30 4080 H 406.38 -3.24226 6.87591 0
M  V30 4081 N 407.956 -0.998596 -1.21925 0
M  V30 4082 C 409.204 -0.676325 -1.90448 0
M  V30 4083 C 409.525 0.794719 -1.78071 0
M  V30 4084 O 408.795 1.5701 -1.17152 0
M  V30 4085 H 407.375 -0.247165 -0.704925 0
M  V30 4086 H 410.037 -1.26633 -1.48156 0
M  V30 4087 H 409.133 -0.943858 -2.97486 0
M  V30 4088 N 409.434 1.37368 -0.772513 0
M  V30 4089 C 410.682 1.99279 -0.336516 0
M  V30 4090 C 411.003 1.6163 1.09091 0
M  V30 4091 O 410.273 0.882109 1.74916 0
M  V30 4092 H 408.853 0.737063 -0.121435 0
M  V30 4093 H 411.515 1.67836 -0.990809 0
M  V30 4094 H 410.611 3.09332 -0.414763 0
M  V30 4095 N 410.912 0.523116 1.48665 0
M  V30 4096 C 412.158 -0.0134963 2.02796 0
M  V30 4097 C 412.491 -1.34582 1.40004 0
M  V30 4098 O 411.766 -1.86756 0.543381 0
M  V30 4099 C 412.049 -0.14276 3.59817 0
M  V30 4100 C 411.902 1.21425 4.331 0
M  V30 4101 C 413.221 -0.872856 4.31357 0
M  V30 4102 H 410.34 -0.00343074 0.736992 0
M  V30 4103 H 412.982 0.678816 1.7746 0
M  V30 4104 H 411.132 -0.732401 3.81534 0
M  V30 4105 H 412.804 1.84447 4.2282 0
M  V30 4106 H 411.047 1.79791 3.94788 0
M  V30 4107 H 411.718 1.07687 5.41394 0
M  V30 4108 H 414.194 -0.372555 4.14429 0
M  V30 4109 H 413.07 -0.932185 5.40927 0
M  V30 4110 H 413.331 -1.92161 3.98154 0
M  V30 4111 N 412.39 -1.55475 0.257931 0
M  V30 4112 C 413.636 -1.99502 -0.364266 0
M  V30 4113 C 413.969 -1.146 -1.56782 0
M  V30 4114 O 413.244 -0.211968 -1.93342 0
M  V30 4115 C 413.527 -3.51917 -0.763333 0
M  V30 4116 C 413.38 -4.4758 0.446371 0
M  V30 4117 C 414.699 -4.09742 -1.60623 0
M  V30 4118 H 411.818 -0.725277 -0.130929 0
M  V30 4119 H 414.46 -1.8653 0.361446 0
M  V30 4120 H 412.61 -3.63101 -1.38166 0
M  V30 4121 H 414.282 -4.48362 1.08487 0
M  V30 4122 H 412.525 -4.19947 1.08753 0
M  V30 4123 H 413.196 -5.51862 0.123645 0
M  V30 4124 H 415.672 -4.01727 -1.08418 0
M  V30 4125 H 414.548 -5.16631 -1.85429 0
M  V30 4126 H 414.809 -3.58889 -2.58169 0
M  V30 4127 N 413.868 0.0150385 -1.57593 0
M  V30 4128 C 415.115 0.703001 -1.89906 0
M  V30 4129 C 415.443 1.74604 -0.856944 0
M  V30 4130 O 414.698 1.95197 0.140287 0
M  V30 4131 C 414.997 1.39686 -3.28972 0
M  V30 4132 C 414.663 0.488457 -4.48246 0
M  V30 4133 C 413.325 0.2383 -4.8061 0
M  V30 4134 C 415.677 -0.137881 -5.21018 0
M  V30 4135 C 413.005 -0.646738 -5.83125 0
M  V30 4136 C 415.357 -1.0107 -6.24474 0
M  V30 4137 C 414.021 -1.27019 -6.55303 0
M  V30 4138 H 413.291 0.257246 -0.694914 0
M  V30 4139 H 415.938 -0.037259 -1.91464 0
M  V30 4140 H 414.243 2.21079 -3.23468 0
M  V30 4141 H 415.94 1.93495 -3.51227 0
M  V30 4142 H 412.53 0.693593 -4.22951 0
M  V30 4143 H 416.714 0.0423953 -4.96282 0
M  V30 4144 H 411.97 -0.855937 -6.05379 0
M  V30 4145 H 416.144 -1.50247 -6.79999 0
M  V30 4146 H 413.771 -1.95769 -7.3456 0
M  V30 4147 N 415.346 1.54954 0.287554 0
M  V30 4148 C 416.293 1.86834 1.35505 0
M  V30 4149 C 417.263 0.718452 1.49758 0
M  V30 4150 O 418.448 0.968358 1.644 0
M  V30 4151 C 415.588 2.13303 2.71286 0
M  V30 4152 C 414.701 3.40883 2.65373 0
M  V30 4153 C 413.836 3.57125 3.93236 0
M  V30 4154 C 412.875 4.78449 3.81776 0
M  V30 4155 N 412.012 4.91426 5.01443 0
M  V30 4156 H 416.852 2.77889 1.07619 0
M  V30 4157 H 414.389 1.37593 0.520241 0
M  V30 4158 H 416.347 2.26646 3.50267 0
M  V30 4159 H 414.977 1.25499 2.97405 0
M  V30 4160 H 414.029 3.36088 1.78182 0
M  V30 4161 H 415.341 4.29993 2.52799 0
M  V30 4162 H 414.495 3.70207 4.80658 0
M  V30 4163 H 413.234 2.66173 4.0866 0
M  V30 4164 H 412.239 4.65386 2.92738 0
M  V30 4165 H 413.464 5.70822 3.67884 0
M  V30 4166 H 411.41 4.03401 5.17304 0
M  V30 4167 H 411.327 5.74559 4.91343 0
M  V30 4168 H 412.595 5.08879 5.90477 0
M  V30 4169 N 416.824 -0.551391 1.4764 0
M  V30 4170 C 417.754 -1.66757 1.63445 0
M  V30 4171 C 418.735 -1.63077 0.483742 0
M  V30 4172 O 419.92 -1.80607 0.71377 0
M  V30 4173 C 417.05 -3.05387 1.65396 0
M  V30 4174 C 416.004 -3.23918 2.79752 0
M  V30 4175 C 415.33 -4.63393 2.66779 0
M  V30 4176 C 416.63 -3.08735 4.21284 0
M  V30 4177 H 418.324 -1.53786 2.56886 0
M  V30 4178 H 415.87 -0.738415 1.23626 0
M  V30 4179 H 417.823 -3.83325 1.75043 0
M  V30 4180 H 416.547 -3.19332 0.685195 0
M  V30 4181 H 415.206 -2.48391 2.69625 0
M  V30 4182 H 414.854 -4.74144 1.67918 0
M  V30 4183 H 414.554 -4.7674 3.43501 0
M  V30 4184 H 416.078 -5.43458 2.78364 0
M  V30 4185 H 417.492 -3.76484 4.32357 0
M  V30 4186 H 415.889 -3.33588 4.98838 0
M  V30 4187 H 416.959 -2.0541 4.39243 0
M  V30 4188 N 418.302 -1.35869 -0.798587 0
M  V30 4189 C 419.532 -1.32529 -1.58491 0
M  V30 4190 C 419.94 0.0975405 -1.88948 0
M  V30 4191 O 419.283 1.06224 -1.49874 0
M  V30 4192 C 419.345 -2.07247 -2.9375 0
M  V30 4193 C 419.009 -3.56391 -2.86068 0
M  V30 4194 C 420.006 -4.50824 -2.58947 0
M  V30 4195 C 417.691 -3.9915 -3.04933 0
M  V30 4196 C 419.685 -5.85993 -2.5078 0
M  V30 4197 C 417.372 -5.34413 -2.96389 0
M  V30 4198 C 418.37 -6.27646 -2.69349 0
M  V30 4199 O 418.058 -7.60426 -2.60782 0
M  V30 4200 H 417.79 -0.456529 -0.498556 0
M  V30 4201 H 420.344 -1.79425 -0.999799 0
M  V30 4202 H 418.574 -1.55001 -3.54276 0
M  V30 4203 H 420.263 -1.96883 -3.54954 0
M  V30 4204 H 421.029 -4.19104 -2.44084 0
M  V30 4205 H 416.908 -3.26961 -3.24989 0
M  V30 4206 H 420.452 -6.58735 -2.29595 0
M  V30 4207 H 416.349 -5.65743 -3.10813 0
M  V30 4208 H 417.117 -7.70444 -2.76331 0
M  V30 4209 N 419.78 1.02168 -1.19998 0
M  V30 4210 C 421.196 1.27969 -0.953737 0
M  V30 4211 C 421.396 1.98079 0.369703 0
M  V30 4212 O 420.452 2.27306 1.09947 0
M  V30 4213 C 421.765 2.11971 -2.13281 0
M  V30 4214 C 423.313 2.25255 -2.17323 0
M  V30 4215 C 423.788 3.12632 -3.34702 0
M  V30 4216 N 425.279 3.2022 -3.34684 0
M  V30 4217 C 426.014 3.88039 -4.22153 0
M  V30 4218 N 425.51 4.58027 -5.19791 0
M  V30 4219 N 427.303 3.84511 -4.10009 0
M  V30 4220 H 419.454 0.550794 -2.05134 0
M  V30 4221 H 421.717 0.305683 -0.897364 0
M  V30 4222 H 421.423 1.67785 -3.09097 0
M  V30 4223 H 421.297 3.12699 -2.10949 0
M  V30 4224 H 423.684 2.68667 -1.22073 0
M  V30 4225 H 423.765 1.24053 -2.23706 0
M  V30 4226 H 423.409 2.69926 -4.30235 0
M  V30 4227 H 423.339 4.13909 -3.25556 0
M  V30 4228 H 425.83 2.70382 -2.64012 0
M  V30 4229 H 426.143 5.07429 -5.82868 0
M  V30 4230 H 424.488 4.56869 -5.23733 0
M  V30 4231 H 427.679 3.28978 -3.33003 0
M  V30 4232 H 427.852 4.3709 -4.78389 0
M  V30 4233 N 421.258 1.00505 1.21394 0
M  V30 4234 C 422.535 0.603277 1.86064 0
M  V30 4235 C 422.915 -0.919095 1.90042 0
M  V30 4236 O 422.263 -1.80607 1.39977 0
M  V30 4237 C 422.473 1.23772 3.26315 0
M  V30 4238 C 423.821 1.34586 4.02705 0
M  V30 4239 O 424.845 1.19304 3.35626 0
M  V30 4240 O 423.704 1.59169 5.22807 0
M  V30 4241 H 420.798 0.206634 0.800769 0
M  V30 4242 H 423.344 1.1017 1.29076 0
M  V30 4243 H 422.116 2.27848 3.18121 0
M  V30 4244 H 421.739 0.725648 3.90922 0
M  V30 4245 N 422.737 -1.36956 0.779787 0
M  V30 4246 C 423.983 -2.00237 0.357324 0
M  V30 4247 C 424.338 -1.60787 -1.05666 0
M  V30 4248 O 423.631 -0.847836 -1.71821 0
M  V30 4249 C 423.825 -3.54585 0.447686 0
M  V30 4250 C 423.654 -4.09025 1.86891 0
M  V30 4251 C 422.424 -4.39612 2.49138 0
M  V30 4252 C 424.622 -4.29461 2.82963 0
M  V30 4253 N 422.604 -4.79816 3.82949 0
M  V30 4254 C 423.975 -4.72363 4.01588 0
M  V30 4255 C 426.03 -4.1161 2.80145 0
M  V30 4256 C 424.733 -4.99284 5.17791 0
M  V30 4257 C 426.759 -4.39672 3.95528 0
M  V30 4258 C 426.121 -4.82822 5.12896 0
M  V30 4259 H 422.22 -0.76148 0.177968 0
M  V30 4260 H 424.804 -1.6613 1.01533 0
M  V30 4261 H 422.975 -3.87982 -0.180184 0
M  V30 4262 H 424.707 -4.047 0.0023955 0
M  V30 4263 H 421.462 -4.28975 2.00693 0
M  V30 4264 H 421.886 -5.04216 4.51769 0
M  V30 4265 H 426.528 -3.77415 1.90572 0
M  V30 4266 H 424.246 -5.32365 6.07958 0
M  V30 4267 H 427.832 -4.27441 3.94697 0
M  V30 4268 H 426.712 -5.04118 6.00695 0
M  V30 4269 N 424.215 -0.530993 -1.48385 0
M  V30 4270 C 425.462 0.0027373 -2.025 0
M  V30 4271 C 425.79 1.34186 -1.40799 0
M  V30 4272 O 425.045 1.88 -0.543544 0
M  V30 4273 C 425.344 0.172742 -3.56982 0
M  V30 4274 C 425.01 -1.09215 -4.37473 0
M  V30 4275 C 423.672 -1.43881 -4.59186 0
M  V30 4276 C 426.024 -1.93153 -4.84088 0
M  V30 4277 C 423.352 -2.62381 -5.2476 0
M  V30 4278 C 425.704 -3.10833 -5.50968 0
M  V30 4279 C 424.368 -3.45843 -5.70919 0
M  V30 4280 H 423.638 0.00100165 -0.740999 0
M  V30 4281 H 426.285 -0.697219 -1.78357 0
M  V30 4282 H 424.59 0.955473 -3.79971 0
M  V30 4283 H 426.287 0.600642 -3.96476 0
M  V30 4284 H 422.877 -0.812177 -4.20834 0
M  V30 4285 H 427.061 -1.67683 -4.67115 0
M  V30 4286 H 422.317 -2.89707 -5.38405 0
M  V30 4287 H 426.491 -3.7618 -5.86056 0
M  V30 4288 H 424.118 -4.37764 -6.21503 0
M  V30 4289 N 425.693 1.55336 -0.266172 0
M  V30 4290 C 426.941 1.99003 0.35246 0
M  V30 4291 C 427.262 1.15591 1.57047 0
M  V30 4292 O 426.532 0.243268 1.94384 0
M  V30 4293 H 425.112 0.735025 0.133217 0
M  V30 4294 H 427.774 1.91367 -0.369434 0
M  V30 4295 H 426.87 3.05289 0.648453 0
M  V30 4296 N 427.171 -0.0066808 1.57599 0
M  V30 4297 C 428.399 -0.704087 1.94551 0
M  V30 4298 C 428.814 -1.67677 0.867746 0
M  V30 4299 O 428.171 -1.8185 -0.153925 0
M  V30 4300 C 428.222 -1.44177 3.31505 0
M  V30 4301 O 427.943 -0.508097 4.35144 0
M  V30 4302 C 429.444 -2.23429 3.82876 0
M  V30 4303 H 426.664 -0.196523 0.641576 0
M  V30 4304 H 429.208 0.042453 2.04456 0
M  V30 4305 H 427.363 -2.13999 3.22929 0
M  V30 4306 H 427.777 -1.02782 5.14331 0
M  V30 4307 H 429.251 -2.70552 4.8115 0
M  V30 4308 H 429.728 -3.05818 3.15233 0
M  V30 4309 H 430.334 -1.58636 3.94607 0
M  V30 4310 N 428.649 -1.55105 -0.279332 0
M  V30 4311 C 429.874 -1.7976 -1.03446 0
M  V30 4312 C 430.299 -0.565952 -1.79384 0
M  V30 4313 O 429.657 0.484259 -1.74713 0
M  V30 4314 C 429.705 -3.0179 -1.97371 0
M  V30 4315 O 428.809 -2.76432 -3.06038 0
M  V30 4316 H 428.15 -0.594334 -0.29608 0
M  V30 4317 H 430.68 -2.02235 -0.310165 0
M  V30 4318 H 430.69 -3.30351 -2.39441 0
M  V30 4319 H 429.365 -3.91085 -1.4151 0
M  V30 4320 H 427.942 -2.58949 -2.68328 0
M  V30 4321 N 430.127 0.543554 -1.4793 0
M  V30 4322 C 431.538 1.12561 -1.48953 0
M  V30 4323 C 431.889 1.94578 -0.251754 0
M  V30 4324 O 431.014 2.0665 0.642255 0
M  V30 4325 C 431.609 2.04801 -2.69892 0
M  V30 4326 C 430.168 2.58251 -2.73831 0
M  V30 4327 C 429.315 1.34918 -2.42265 0
M  V30 4328 H 432.266 0.32947 -1.55242 0
M  V30 4329 H 432.287 2.88886 -2.47639 0
M  V30 4330 H 431.799 1.4508 -3.59963 0
M  V30 4331 H 429.9 3.21732 -1.87934 0
M  V30 4332 H 430.013 2.98312 -3.74895 0
M  V30 4333 H 428.377 1.66046 -1.93134 0
M  V30 4334 H 429.16 0.769693 -3.3456 0
M  V30 4335 N 431.605 1.3629 0.791371 0
M  V30 4336 C 432.535 1.33137 1.91825 0
M  V30 4337 C 433.516 0.203168 1.68882 0
M  V30 4338 O 434.701 0.400509 1.90025 0
M  V30 4339 C 431.831 1.11793 3.28816 0
M  V30 4340 C 430.785 2.21417 3.66277 0
M  V30 4341 C 430.111 1.85218 5.01596 0
M  V30 4342 C 431.411 3.63489 3.75064 0
M  V30 4343 H 433.105 2.2743 1.9472 0
M  V30 4344 H 430.651 1.09479 0.935437 0
M  V30 4345 H 432.604 1.08222 4.07266 0
M  V30 4346 H 431.328 0.139501 3.26302 0
M  V30 4347 H 429.987 2.2411 2.90121 0
M  V30 4348 H 429.635 0.859544 4.95602 0
M  V30 4349 H 429.335 2.58611 5.27631 0
M  V30 4350 H 430.859 1.832 5.82469 0
M  V30 4351 H 432.273 3.63034 4.43711 0
M  V30 4352 H 430.67 4.35771 4.12582 0
M  V30 4353 H 431.74 3.98536 2.76219 0
M  V30 4354 N 433.083 -1.0153 1.20538 0
M  V30 4355 C 434.311 -1.78746 1.04199 0
M  V30 4356 C 434.726 -1.84323 -0.408733 0
M  V30 4357 O 434.083 -1.29714 -1.28377 0
M  V30 4358 C 434.134 -3.23152 1.62035 0
M  V30 4359 O 433.855 -3.17918 3.0143 0
M  V30 4360 C 435.356 -4.16911 1.50666 0
M  V30 4361 H 432.576 -0.56208 0.366479 0
M  V30 4362 H 435.12 -1.27794 1.59653 0
M  V30 4363 H 433.275 -3.71248 1.10697 0
M  V30 4364 H 433.689 -4.08567 3.28897 0
M  V30 4365 H 435.163 -5.16072 1.95892 0
M  V30 4366 H 435.64 -4.36791 0.459363 0
M  V30 4367 H 436.246 -3.74698 2.01201 0
M  V30 4368 N 434.561 -1.01147 -1.20859 0
M  V30 4369 C 435.511 -0.548247 -2.2131 0
M  V30 4370 C 436.495 0.393646 -1.5601 0
M  V30 4371 O 437.687 0.217445 -1.75659 0
M  V30 4372 C 434.816 0.117252 -3.431 0
M  V30 4373 C 433.902 -0.846043 -4.15575 0
M  V30 4374 N 434.293 -2.00149 -4.64515 0
M  V30 4375 C 432.591 -0.665783 -4.41003 0
M  V30 4376 C 433.292 -2.60764 -5.19978 0
M  V30 4377 N 432.268 -1.88868 -5.09735 0
M  V30 4378 H 436.07 -1.42921 -2.56809 0
M  V30 4379 H 433.584 -0.876142 -1.36739 0
M  V30 4380 H 435.581 0.46662 -4.1428 0
M  V30 4381 H 434.241 0.994115 -3.09107 0
M  V30 4382 H 435.252 -2.38162 -4.5989 0
M  V30 4383 H 431.929 0.163456 -4.1718 0
M  V30 4384 H 433.319 -3.58519 -5.68255 0
M  V30 4385 N 436.039 1.36541 -0.78704 0
M  V30 4386 C 436.986 2.30082 -0.181901 0
M  V30 4387 C 437.956 1.5186 0.672896 0
M  V30 4388 O 439.141 1.80374 0.622072 0
M  V30 4389 C 436.281 3.3835 0.679197 0
M  V30 4390 C 435.394 4.31565 -0.193882 0
M  V30 4391 C 434.529 5.26915 0.673364 0
M  V30 4392 C 433.568 6.11769 -0.201315 0
M  V30 4393 N 432.705 6.99315 0.624777 0
M  V30 4394 H 437.545 2.81248 -0.985064 0
M  V30 4395 H 435.082 1.38437 -0.497342 0
M  V30 4396 H 437.04 3.99767 1.19341 0
M  V30 4397 H 435.67 2.8851 1.44781 0
M  V30 4398 H 434.722 3.71323 -0.826044 0
M  V30 4399 H 436.034 4.91191 -0.867937 0
M  V30 4400 H 435.188 5.9361 1.25348 0
M  V30 4401 H 433.927 4.67737 1.38105 0
M  V30 4402 H 432.932 5.44039 -0.793849 0
M  V30 4403 H 434.157 6.73022 -0.906568 0
M  V30 4404 H 432.103 6.42648 1.3168 0
M  V30 4405 H 432.02 7.56 0.00835237 0
M  V30 4406 H 433.288 7.70382 1.18879 0
M  V30 4407 N 437.518 0.538854 1.48102 0
M  V30 4408 C 438.448 -0.207654 2.32575 0
M  V30 4409 C 439.429 -0.926559 1.4265 0
M  V30 4410 O 440.614 -0.91061 1.71527 0
M  V30 4411 C 437.744 -1.24957 3.24042 0
M  V30 4412 C 436.698 -0.648263 4.23062 0
M  V30 4413 C 436.024 -1.79348 5.03725 0
M  V30 4414 C 437.324 0.385897 5.20872 0
M  V30 4415 H 439.018 0.497534 2.95237 0
M  V30 4416 H 436.564 0.240715 1.41974 0
M  V30 4417 H 438.517 -1.77983 3.81969 0
M  V30 4418 H 437.241 -1.98446 2.59397 0
M  V30 4419 H 435.9 -0.139452 3.66335 0
M  V30 4420 H 435.548 -2.51696 4.35498 0
M  V30 4421 H 435.248 -1.39702 5.70751 0
M  V30 4422 H 436.772 -2.32735 5.64506 0
M  V30 4423 H 438.186 -0.057607 5.73271 0
M  V30 4424 H 436.583 0.700227 5.96001 0
M  V30 4425 H 437.653 1.28848 4.67468 0
M  V30 4426 N 438.996 -1.55193 0.274407 0
M  V30 4427 C 440.226 -2.03692 -0.345442 0
M  V30 4428 C 440.634 -1.15224 -1.50067 0
M  V30 4429 O 439.977 -0.164749 -1.8296 0
M  V30 4430 C 440.039 -3.48325 -0.88939 0
M  V30 4431 C 439.703 -4.56794 0.137115 0
M  V30 4432 C 440.7 -5.11028 0.956378 0
M  V30 4433 C 438.385 -5.01568 0.27115 0
M  V30 4434 C 440.379 -6.08552 1.89587 0
M  V30 4435 C 438.066 -5.98918 1.21412 0
M  V30 4436 C 439.064 -6.52291 2.02498 0
M  V30 4437 O 438.752 -7.47738 2.952 0
M  V30 4438 H 438.484 -0.670893 -0.0829332 0
M  V30 4439 H 441.038 -2.01387 0.404056 0
M  V30 4440 H 439.268 -3.47867 -1.68895 0
M  V30 4441 H 440.957 -3.80167 -1.42225 0
M  V30 4442 H 441.723 -4.7725 0.863559 0
M  V30 4443 H 437.602 -4.5967 -0.349987 0
M  V30 4444 H 441.146 -6.50137 2.52918 0
M  V30 4445 H 437.043 -6.32114 1.30776 0
M  V30 4446 H 437.811 -7.65451 2.89874 0
M  V30 4447 N 440.474 -0.00167713 -1.576 0
M  V30 4448 C 441.407 1.02317 -2.03977 0
M  V30 4449 C 442.385 1.33381 -0.929963 0
M  V30 4450 O 443.569 1.45517 -1.19822 0
M  V30 4451 C 440.696 2.35035 -2.43878 0
M  V30 4452 C 439.742 2.19621 -3.65607 0
M  V30 4453 S 440.575 1.52068 -5.13455 0
M  V30 4454 C 441.731 2.86212 -5.56627 0
M  V30 4455 H 441.964 0.628285 -2.90585 0
M  V30 4456 H 439.497 0.209239 -1.52976 0
M  V30 4457 H 441.455 3.11345 -2.67534 0
M  V30 4458 H 440.116 2.71663 -1.57665 0
M  V30 4459 H 439.309 3.1767 -3.91282 0
M  V30 4460 H 438.911 1.51455 -3.41961 0
M  V30 4461 H 441.203 3.82509 -5.59189 0
M  V30 4462 H 442.146 2.65235 -6.56549 0
M  V30 4463 H 442.554 2.90199 -4.84195 0
M  V30 4464 N 441.952 1.55251 0.271103 0
M  V30 4465 C 442.899 1.88261 1.33516 0
M  V30 4466 C 443.869 0.734296 1.48988 0
M  V30 4467 O 445.054 0.985741 1.63364 0
M  V30 4468 C 442.194 2.16168 2.69008 0
M  V30 4469 C 441.307 3.43678 2.61743 0
M  V30 4470 C 440.442 3.61276 3.89427 0
M  V30 4471 C 439.481 4.82472 3.7668 0
M  V30 4472 N 438.618 4.96717 4.96202 0
M  V30 4473 H 443.458 2.79015 1.04665 0
M  V30 4474 H 440.995 1.38137 0.505618 0
M  V30 4475 H 442.953 2.30349 3.47844 0
M  V30 4476 H 441.583 1.28646 2.96057 0
M  V30 4477 H 440.635 3.37959 1.74607 0
M  V30 4478 H 441.947 4.3265 2.48224 0
M  V30 4479 H 441.101 3.75284 4.76704 0
M  V30 4480 H 439.84 2.70492 4.05814 0
M  V30 4481 H 438.845 4.68465 2.87786 0
M  V30 4482 H 440.07 5.74692 3.61809 0
M  V30 4483 H 438.016 4.08865 5.12997 0
M  V30 4484 H 437.933 5.79738 4.85222 0
M  V30 4485 H 439.201 5.15113 5.85046 0
M  V30 4486 N 443.43 -0.535701 1.48216 0
M  V30 4487 C 444.676 -1.29375 1.56173 0
M  V30 4488 C 445.009 -1.92804 0.232429 0
M  V30 4489 O 444.284 -1.78992 -0.761048 0
M  V30 4490 C 444.567 -2.38747 2.69577 0
M  V30 4491 C 444.42 -1.80046 4.12193 0
M  V30 4492 C 445.739 -3.40551 2.78771 0
M  V30 4493 H 442.858 -0.469027 0.568491 0
M  V30 4494 H 445.5 -0.597358 1.80365 0
M  V30 4495 H 443.65 -2.98147 2.4908 0
M  V30 4496 H 445.322 -1.24742 4.44114 0
M  V30 4497 H 443.565 -1.10609 4.19462 0
M  V30 4498 H 444.236 -2.59212 4.87353 0
M  V30 4499 H 446.712 -2.91099 2.97322 0
M  V30 4500 H 445.588 -4.1448 3.59857 0
M  V30 4501 H 445.849 -4.00746 1.86696 0
M  V30 4502 N 444.908 -1.36708 -0.784132 0
M  V30 4503 C 445.858 -1.2799 -1.88686 0
M  V30 4504 C 446.842 -0.170282 -1.59996 0
M  V30 4505 O 448.034 -0.403571 -1.72338 0
M  V30 4506 C 445.163 -1.07674 -3.25977 0
M  V30 4507 C 444.249 -2.23127 -3.60659 0
M  V30 4508 N 444.64 -3.48467 -3.66612 0
M  V30 4509 C 442.938 -2.15009 -3.90752 0
M  V30 4510 C 443.639 -4.24525 -3.97685 0
M  V30 4511 N 442.615 -3.53524 -4.12943 0
M  V30 4512 H 446.417 -2.22927 -1.91522 0
M  V30 4513 H 443.931 -1.29503 -0.979933 0
M  V30 4514 H 445.928 -0.995151 -4.04849 0
M  V30 4515 H 444.588 -0.13643 -3.24413 0
M  V30 4516 H 445.599 -3.82534 -3.49125 0
M  V30 4517 H 442.276 -1.28963 -3.97083 0
M  V30 4518 H 443.666 -5.32944 -4.0917 0
M  V30 4519 N 446.386 1.0089 -1.21074 0
M  V30 4520 C 447.616 1.77933 -1.04993 0
M  V30 4521 C 448.024 1.84847 0.403495 0
M  V30 4522 O 447.367 1.30606 1.29181 0
M  V30 4523 C 447.429 3.23541 -1.56722 0
M  V30 4524 C 447.093 3.40214 -3.05129 0
M  V30 4525 C 448.09 3.2881 -4.02716 0
M  V30 4526 C 445.775 3.65781 -3.44252 0
M  V30 4527 C 447.769 3.42732 -5.37414 0
M  V30 4528 C 445.456 3.79346 -4.79103 0
M  V30 4529 C 446.454 3.67827 -5.75493 0
M  V30 4530 O 446.142 3.80965 -7.07899 0
M  V30 4531 H 445.874 0.566157 -0.369381 0
M  V30 4532 H 448.428 1.27826 -1.60779 0
M  V30 4533 H 446.658 3.74766 -0.953285 0
M  V30 4534 H 448.347 3.82245 -1.36543 0
M  V30 4535 H 449.113 3.08986 -3.73835 0
M  V30 4536 H 444.992 3.73831 -2.69762 0
M  V30 4537 H 448.536 3.33658 -6.12632 0
M  V30 4538 H 444.433 3.98672 -5.07672 0
M  V30 4539 H 445.201 3.97937 -7.15254 0
M  V30 4540 N 447.864 1.01787 1.20321 0
M  V30 4541 C 449.112 0.706538 1.89347 0
M  V30 4542 C 449.433 -0.766289 1.79313 0
M  V30 4543 O 448.703 -1.55126 1.19635 0
M  V30 4544 H 447.283 0.258348 0.700903 0
M  V30 4545 H 449.945 1.28974 1.46122 0
M  V30 4546 H 449.041 0.991066 2.95946 0
M  V30 4547 N 449.342 -1.36122 0.79427 0
M  V30 4548 C 450.758 -1.5232 0.476525 0
M  V30 4549 C 450.958 -1.74685 -1.00436 0
M  V30 4550 O 450.014 -1.78115 -1.78973 0
M  V30 4551 C 451.327 -2.70607 1.31119 0
M  V30 4552 C 452.875 -2.8448 1.30537 0
M  V30 4553 C 453.35 -4.05778 2.12387 0
M  V30 4554 N 454.841 -4.12933 2.09859 0
M  V30 4555 C 455.576 -5.05876 2.69957 0
M  V30 4556 N 455.072 -6.04232 3.38934 0
M  V30 4557 N 456.865 -4.98528 2.59665 0
M  V30 4558 H 449.016 -1.1986 1.75349 0
M  V30 4559 H 451.279 -0.585418 0.745647 0
M  V30 4560 H 450.985 -2.60619 2.36158 0
M  V30 4561 H 450.859 -3.64888 0.955843 0
M  V30 4562 H 453.246 -2.93927 0.262876 0
M  V30 4563 H 453.327 -1.91093 1.70051 0
M  V30 4564 H 452.971 -3.97092 3.1667 0
M  V30 4565 H 452.901 -4.98323 1.70242 0
M  V30 4566 H 455.392 -3.42515 1.59662 0
M  V30 4567 H 455.705 -6.71724 3.82109 0
M  V30 4568 H 454.05 -6.04443 3.43036 0
M  V30 4569 H 457.241 -4.20641 2.05375 0
M  V30 4570 H 457.414 -5.70773 3.06793 0
M  V30 4571 N 450.82 -0.546701 -1.47814 0
M  V30 4572 C 452.045 -0.021268 -2.07389 0
M  V30 4573 C 452.47 1.25822 -1.39822 0
M  V30 4574 O 451.828 1.75111 -0.46968 0
M  V30 4575 C 451.876 0.168502 -3.60206 0
M  V30 4576 O 450.98 1.23347 -3.93522 0
M  V30 4577 H 450.321 -0.0466108 -0.662362 0
M  V30 4578 H 452.851 -0.759387 -1.89985 0
M  V30 4579 H 452.861 0.385982 -4.0617 0
M  V30 4580 H 451.536 -0.766075 -4.08784 0
M  V30 4581 H 450.113 0.997319 -3.59316 0
M  V30 4582 N 452.299 1.55045 -0.282633 0
M  V30 4583 C 453.545 2.00056 0.332481 0
M  V30 4584 C 453.878 1.1708 1.54939 0
M  V30 4585 O 453.153 0.2427 1.9298 0
M  V30 4586 C 453.436 3.53086 0.70725 0
M  V30 4587 C 453.289 4.46813 -0.517521 0
M  V30 4588 C 454.608 4.12245 1.54084 0
M  V30 4589 H 451.727 0.727268 0.119373 0
M  V30 4590 H 454.369 1.85932 -0.391076 0
M  V30 4591 H 452.519 3.65253 1.32372 0
M  V30 4592 H 454.191 4.46579 -1.15607 0
M  V30 4593 H 452.434 4.18163 -1.1542 0
M  V30 4594 H 453.105 5.51595 -0.211426 0
M  V30 4595 H 455.581 4.03401 1.02013 0
M  V30 4596 H 454.457 5.19515 1.77186 0
M  V30 4597 H 454.718 3.62951 2.52427 0
M  V30 4598 N 453.777 0.010035 1.57597 0
M  V30 4599 C 454.687 -0.994226 2.12491 0
M  V30 4600 C 455.703 -1.37013 1.07254 0
M  V30 4601 O 456.879 -1.45542 1.3921 0
M  V30 4602 C 453.944 -2.2642 2.62555 0
M  V30 4603 C 453.005 -1.95049 3.82432 0
M  V30 4604 C 452.238 -3.15991 4.30099 0
M  V30 4605 O 452.461 -4.28015 3.7704 0
M  V30 4606 O 451.395 -2.99403 5.22151 0
M  V30 4607 H 455.221 -0.557549 2.98538 0
M  V30 4608 H 452.806 -0.209413 1.47925 0
M  V30 4609 H 454.688 -3.01009 2.9491 0
M  V30 4610 H 453.363 -2.69306 1.796 0
M  V30 4611 H 452.27 -1.17904 3.55034 0
M  V30 4612 H 453.603 -1.56992 4.66491 0
M  V30 4613 N 455.255 -1.55392 -0.262866 0
M  V30 4614 C 456.203 -1.8977 -1.345 0
M  V30 4615 C 457.197 -0.775063 -1.50629 0
M  V30 4616 O 458.403 -0.959519 -1.52293 0
M  V30 4617 H 454.778 -0.602467 -0.450041 0
M  V30 4618 H 456.749 -2.80147 -1.02762 0
M  V30 4619 C 455.498 -2.19501 -2.69657 0
M  V30 4620 H 454.821 -3.05378 -2.5804 0
M  V30 4621 H 456.261 -2.47469 -3.44289 0
M  V30 4622 C 454.72 -1.00597 -3.21531 0
M  V30 4623 O 455.25 -0.245768 -4.00947 0
M  V30 4624 N 453.456 -0.800911 -2.79345 0
M  V30 4625 H 453.003 -1.42079 -2.14875 0
M  V30 4626 H 452.961 -0.00697996 -3.14399 0
M  V30 4627 N 456.733 0.527833 -1.48498 0
M  V30 4628 C 457.696 1.61439 -1.62696 0
M  V30 4629 C 458.696 1.52824 -0.500136 0
M  V30 4630 O 459.886 1.56456 -0.765976 0
M  V30 4631 C 457.018 3.01063 -1.59918 0
M  V30 4632 H 458.211 1.50189 -2.59583 0
M  V30 4633 H 455.764 0.750055 -1.37127 0
M  V30 4634 H 456.499 3.17818 -0.645163 0
M  V30 4635 H 456.284 3.08725 -2.41726 0
M  V30 4636 H 457.774 3.80057 -1.73051 0
M  V30 4637 N 458.211 1.37122 0.776871 0
M  V30 4638 C 459.441 1.35034 1.56363 0
M  V30 4639 C 459.849 -0.0674681 1.8908 0
M  V30 4640 O 459.192 -1.03826 1.51545 0
M  V30 4641 C 459.254 2.11894 2.90415 0
M  V30 4642 C 458.918 3.60897 2.80362 0
M  V30 4643 C 459.915 4.54887 2.51742 0
M  V30 4644 C 457.6 4.03951 2.98545 0
M  V30 4645 C 459.594 5.89909 2.41426 0
M  V30 4646 C 457.281 5.3906 2.87849 0
M  V30 4647 C 458.279 6.31852 2.5933 0
M  V30 4648 O 457.967 7.64479 2.48651 0
M  V30 4649 H 457.699 0.464402 0.49123 0
M  V30 4650 H 460.253 1.80992 0.971127 0
M  V30 4651 H 458.483 1.60618 3.51765 0
M  V30 4652 H 460.172 2.02505 3.51776 0
M  V30 4653 H 460.938 4.22934 2.37385 0
M  V30 4654 H 456.817 3.3209 3.19746 0
M  V30 4655 H 460.361 6.62304 2.19086 0
M  V30 4656 H 456.258 5.70617 3.01773 0
M  V30 4657 H 457.026 7.74742 2.64039 0
M  V30 4658 N 459.689 -1.00246 1.21608 0
M  V30 4659 C 460.935 -1.74417 1.04643 0
M  V30 4660 C 461.29 -1.87862 -0.415387 0
M  V30 4661 O 460.583 -1.40373 -1.30407 0
M  V30 4662 C 460.777 -3.15448 1.68009 0
M  V30 4663 C 460.606 -3.15755 3.20201 0
M  V30 4664 C 459.376 -3.2219 3.89258 0
M  V30 4665 C 461.574 -3.00668 4.17257 0
M  V30 4666 N 459.556 -3.1215 5.28617 0
M  V30 4667 C 460.927 -2.98553 5.43384 0
M  V30 4668 C 462.982 -2.84989 4.08272 0
M  V30 4669 C 461.685 -2.82364 6.61561 0
M  V30 4670 C 463.711 -2.70158 5.26088 0
M  V30 4671 C 463.073 -2.68721 6.51128 0
M  V30 4672 H 459.172 -0.648317 0.437274 0
M  V30 4673 H 461.756 -1.19129 1.54001 0
M  V30 4674 H 459.927 -3.69001 1.21215 0
M  V30 4675 H 461.659 -3.78128 1.44226 0
M  V30 4676 H 458.414 -3.29488 3.40198 0
M  V30 4677 H 458.838 -3.10465 6.01615 0
M  V30 4678 H 463.48 -2.84904 3.12393 0
M  V30 4679 H 461.198 -2.81196 7.57598 0
M  V30 4680 H 464.784 -2.59022 5.20959 0
M  V30 4681 H 463.664 -2.57382 7.40759 0
M  V30 4682 N 461.167 -1.02423 -1.1978 0
M  V30 4683 C 462.444 -0.632802 -1.85081 0
M  V30 4684 C 462.824 0.888745 -1.9148 0
M  V30 4685 O 462.172 1.78357 -1.42832 0
M  V30 4686 C 462.382 -1.28947 -3.24305 0
M  V30 4687 C 463.73 -1.40976 -4.00513 0
M  V30 4688 O 464.754 -1.24628 -3.33686 0
M  V30 4689 O 463.613 -1.67467 -5.20209 0
M  V30 4690 H 460.707 -0.219348 -0.79738 0
M  V30 4691 H 463.253 -1.12209 -1.27307 0
M  V30 4692 H 462.025 -2.3288 -3.14456 0
M  V30 4693 H 461.648 -0.787748 -3.89718 0
M  V30 4694 N 462.645 1.35699 -0.801477 0
M  V30 4695 C 463.893 1.9852 -0.37871 0
M  V30 4696 C 464.214 1.63907 1.05638 0
M  V30 4697 O 463.484 0.919013 1.73006 0
M  V30 4698 H 462.064 0.734322 -0.137042 0
M  V30 4699 H 464.726 1.65697 -1.02619 0
M  V30 4700 H 463.822 3.08382 -0.480284 0
M  V30 4701 N 464.123 0.554532 1.47522 0
M  V30 4702 C 465.351 0.034257 2.06872 0
M  V30 4703 C 465.766 -1.25826 1.40759 0
M  V30 4704 O 465.123 -1.75425 0.503217 0
M  V30 4705 C 465.174 -0.167827 3.6111 0
M  V30 4706 O 464.895 1.07351 4.24744 0
M  V30 4707 C 466.396 -0.72569 4.3732 0
M  V30 4708 H 463.616 0.0446275 0.669514 0
M  V30 4709 H 466.16 0.767181 1.89564 0
M  V30 4710 H 464.315 -0.850872 3.7794 0
M  V30 4711 H 464.729 0.869563 5.17242 0
M  V30 4712 H 466.203 -0.816394 5.45929 0
M  V30 4713 H 466.68 -1.73635 4.0342 0
M  V30 4714 H 467.286 -0.0784292 4.25228 0
M  V30 4715 N 465.601 -1.54893 0.290851 0
M  V30 4716 C 466.564 -2.21824 -0.576784 0
M  V30 4717 C 467.564 -1.20104 -1.06919 0
M  V30 4718 O 468.754 -1.44906 -0.966843 0
M  V30 4719 C 465.886 -2.89662 -1.79747 0
M  V30 4720 H 467.079 -2.99899 0.00784051 0
M  V30 4721 H 464.632 -1.56245 0.0415934 0
M  V30 4722 H 465.367 -2.15639 -2.42219 0
M  V30 4723 H 465.152 -3.64219 -1.45214 0
M  V30 4724 H 466.642 -3.4075 -2.4141 0
M  V30 4725 N 467.08 -0.0183926 -1.57589 0
M  V30 4726 C 468.013 1.00148 -2.0505 0
M  V30 4727 C 468.991 1.32387 -0.944058 0
M  V30 4728 O 470.175 1.44237 -1.21358 0
M  V30 4729 C 467.302 2.32435 -2.46357 0
M  V30 4730 C 466.348 2.15731 -3.67916 0
M  V30 4731 S 467.181 1.46613 -5.15039 0
M  V30 4732 C 468.337 2.80293 -5.59631 0
M  V30 4733 H 468.57 0.597429 -2.91235 0
M  V30 4734 H 466.103 0.193002 -1.53189 0
M  V30 4735 H 468.061 3.0849 -2.70822 0
M  V30 4736 H 466.722 2.69975 -1.60537 0
M  V30 4737 H 465.915 3.13502 -3.9463 0
M  V30 4738 H 465.517 1.4782 -3.43548 0
M  V30 4739 H 467.809 3.76557 -5.63215 0
M  V30 4740 H 468.752 2.58256 -6.59325 0
M  V30 4741 H 469.16 2.85047 -4.87246 0
M  V30 4742 N 468.558 1.5553 0.254621 0
M  V30 4743 C 469.488 1.9268 1.31897 0
M  V30 4744 C 470.469 0.790797 1.506 0
M  V30 4745 O 471.654 1.05045 1.63337 0
M  V30 4746 C 468.784 2.21477 2.67517 0
M  V30 4747 C 467.738 3.37256 2.63519 0
M  V30 4748 C 467.064 3.51576 4.02862 0
M  V30 4749 C 468.364 4.73157 2.21179 0
M  V30 4750 H 470.058 2.81832 1.01051 0
M  V30 4751 H 467.604 1.35599 0.484662 0
M  V30 4752 H 469.557 2.46055 3.42104 0
M  V30 4753 H 468.281 1.29144 2.99982 0
M  V30 4754 H 466.94 3.12675 1.9139 0
M  V30 4755 H 466.588 2.56676 4.32581 0
M  V30 4756 H 466.288 4.2943 4.01078 0
M  V30 4757 H 467.812 3.78467 4.79161 0
M  V30 4758 H 469.226 4.97158 2.85494 0
M  V30 4759 H 467.623 5.54058 2.30521 0
M  V30 4760 H 468.693 4.70739 1.16332 0
M  V30 4761 N 470.036 -0.519951 1.48776 0
M  V30 4762 C 471.283 -1.27522 1.57303 0
M  V30 4763 C 471.611 -1.92869 0.251328 0
M  V30 4764 O 470.866 -1.80372 -0.759243 0
M  V30 4765 C 471.165 -2.37864 2.6675 0
M  V30 4766 C 470.831 -1.90103 4.08867 0
M  V30 4767 C 469.493 -1.76795 4.47546 0
M  V30 4768 C 471.845 -1.54133 4.97888 0
M  V30 4769 C 469.173 -1.25868 5.73039 0
M  V30 4770 C 471.525 -1.04665 6.23881 0
M  V30 4771 C 470.189 -0.899823 6.61407 0
M  V30 4772 H 469.459 -0.466636 0.575614 0
M  V30 4773 H 472.106 -0.579109 1.82534 0
M  V30 4774 H 470.411 -3.13186 2.35418 0
M  V30 4775 H 472.108 -2.95969 2.70561 0
M  V30 4776 H 468.698 -2.01414 3.78326 0
M  V30 4777 H 472.882 -1.6327 4.68675 0
M  V30 4778 H 468.138 -1.13196 6.0083 0
M  V30 4779 H 472.312 -0.759074 6.92251 0
M  V30 4780 H 469.939 -0.503011 7.58534 0
M  V30 4781 N 471.514 -1.37532 -0.769588 0
M  V30 4782 C 472.762 -1.32597 -1.5252 0
M  V30 4783 C 473.083 0.0884294 -1.94799 0
M  V30 4784 O 472.353 1.03289 -1.66458 0
M  V30 4785 H 470.933 -0.487846 -0.565699 0
M  V30 4786 H 473.595 -1.72044 -0.915806 0
M  V30 4787 H 472.691 -1.96643 -2.42359 0
M  V30 4788 N 472.992 0.995999 -1.22138 0
M  V30 4789 C 474.269 1.70834 -0.952642 0
M  V30 4790 C 474.649 2.04257 0.533119 0
M  V30 4791 O 473.997 1.72343 1.50034 0
M  V30 4792 C 474.207 2.96119 -1.84701 0
M  V30 4793 C 475.555 3.68962 -2.10124 0
M  V30 4794 O 476.579 3.0612 -1.82124 0
M  V30 4795 O 475.438 4.82017 -2.57531 0
M  V30 4796 H 472.532 0.745498 -0.357997 0
M  V30 4797 H 475.078 1.05262 -1.33109 0
M  V30 4798 H 473.85 2.67898 -2.85213 0
M  V30 4799 H 473.473 3.6943 -1.46995 0
M  V30 4800 N 474.47 1.03057 1.19235 0
M  V30 4801 C 475.718 0.726581 1.88587 0
M  V30 4802 C 476.039 -0.747227 1.80115 0
M  V30 4803 O 475.309 -1.53849 1.21274 0
M  V30 4804 H 473.889 0.265768 0.698124 0
M  V30 4805 H 476.551 1.30516 1.44746 0
M  V30 4806 H 475.647 1.0224 2.94879 0
M  V30 4807 N 475.948 -1.35272 0.808662 0
M  V30 4808 C 476.911 -2.28082 0.226093 0
M  V30 4809 C 477.911 -1.49673 -0.587762 0
M  V30 4810 O 479.101 -1.69404 -0.405943 0
M  V30 4811 C 476.233 -3.33955 -0.684596 0
M  V30 4812 H 477.426 -2.81116 1.04469 0
M  V30 4813 H 474.979 -1.45162 0.579466 0
M  V30 4814 H 475.714 -2.86111 -1.5268 0
M  V30 4815 H 475.499 -3.91965 -0.102699 0
M  V30 4816 H 476.989 -4.03219 -1.08646 0
M  V30 4817 N 477.426 -0.562348 -1.47226 0
M  V30 4818 C 478.654 -0.0452275 -2.06851 0
M  V30 4819 C 479.069 1.25078 -1.41424 0
M  V30 4820 O 478.426 1.75156 -0.512513 0
M  V30 4821 C 478.477 0.148674 -3.61194 0
M  V30 4822 O 478.198 -1.09602 -4.24169 0
M  V30 4823 C 479.699 0.702488 -4.37699 0
M  V30 4824 H 476.919 -0.0481775 -0.669268 0
M  V30 4825 H 479.463 -0.777223 -1.89155 0
M  V30 4826 H 477.618 0.830817 -3.78386 0
M  V30 4827 H 478.032 -0.896982 -5.16773 0
M  V30 4828 H 479.506 0.78743 -5.46355 0
M  V30 4829 H 479.983 1.71493 -4.04335 0
M  V30 4830 H 480.589 0.0558772 -4.25263 0
M  V30 4831 N 478.904 1.54736 -0.299062 0
M  V30 4832 C 479.837 2.1962 0.619851 0
M  V30 4833 C 480.815 1.16496 1.13434 0
M  V30 4834 O 481.999 1.4513 1.2029 0
M  V30 4835 C 479.126 2.8385 1.84788 0
M  V30 4836 C 478.172 4.00484 1.46679 0
M  V30 4837 S 479.005 5.32926 0.524389 0
M  V30 4838 C 480.161 6.00638 1.76026 0
M  V30 4839 H 480.394 2.97221 0.0686177 0
M  V30 4840 H 477.927 1.54176 -0.0832085 0
M  V30 4841 H 479.885 3.21483 2.55263 0
M  V30 4842 H 478.546 2.06099 2.37028 0
M  V30 4843 H 477.739 4.44201 2.38121 0
M  V30 4844 H 477.341 3.64398 0.842008 0
M  V30 4845 H 479.633 6.21327 2.70109 0
M  V30 4846 H 480.576 6.94805 1.36569 0
M  V30 4847 H 480.984 5.3026 1.93609 0
M  V30 4848 N 480.382 0.0267497 1.57577 0
M  V30 4849 C 481.629 -0.652404 1.91703 0
M  V30 4850 C 481.957 -1.72271 0.902936 0
M  V30 4851 O 481.212 -1.955 -0.0884843 0
M  V30 4852 C 481.511 -1.30914 3.3256 0
M  V30 4853 C 481.177 -0.369441 4.49384 0
M  V30 4854 C 479.839 -0.110791 4.81072 0
M  V30 4855 C 482.191 0.275971 5.20469 0
M  V30 4856 C 479.519 0.801116 5.81205 0
M  V30 4857 C 481.871 1.17592 6.21575 0
M  V30 4858 C 480.535 1.44348 6.51705 0
M  V30 4859 H 479.805 -0.238732 0.70149 0
M  V30 4860 H 482.452 0.0880091 1.91298 0
M  V30 4861 H 480.757 -2.12425 3.29216 0
M  V30 4862 H 482.454 -1.84115 3.56234 0
M  V30 4863 H 479.044 -0.581211 4.24641 0
M  V30 4864 H 483.228 0.0892 4.9622 0
M  V30 4865 H 478.484 1.01614 6.02897 0
M  V30 4866 H 482.658 1.68223 6.75777 0
M  V30 4867 H 480.285 2.15176 7.29111 0
M  V30 4868 N 481.861 -1.55662 -0.24637 0
M  V30 4869 C 483.091 -1.81312 -0.990438 0
M  V30 4870 C 483.499 -0.600234 -1.79426 0
M  V30 4871 O 482.842 0.440537 -1.78339 0
M  V30 4872 C 482.904 -3.0032 -1.97607 0
M  V30 4873 C 482.568 -4.36322 -1.35912 0
M  V30 4874 C 483.565 -5.14295 -0.761348 0
M  V30 4875 C 481.25 -4.83019 -1.37833 0
M  V30 4876 C 483.244 -6.37114 -0.190998 0
M  V30 4877 C 480.931 -6.05786 -0.804128 0
M  V30 4878 C 481.929 -6.82672 -0.211489 0
M  V30 4879 O 481.617 -8.03121 0.353845 0
M  V30 4880 H 481.349 -0.607233 -0.297058 0
M  V30 4881 H 483.903 -2.0356 -0.274351 0
M  V30 4882 H 482.133 -2.73829 -2.73047 0
M  V30 4883 H 483.822 -3.13057 -2.58361 0
M  V30 4884 H 484.588 -4.79337 -0.739013 0
M  V30 4885 H 480.467 -4.23165 -1.829 0
M  V30 4886 H 484.011 -6.97069 0.272206 0
M  V30 4887 H 479.908 -6.40222 -0.823792 0
M  V30 4888 H 480.676 -8.18131 0.245761 0
M  V30 4889 N 483.339 0.512053 -1.4905 0
M  V30 4890 C 484.75 1.09376 -1.51307 0
M  V30 4891 C 485.101 1.94 -0.292971 0
M  V30 4892 O 484.226 2.07965 0.598277 0
M  V30 4893 C 484.821 1.99031 -2.74176 0
M  V30 4894 C 483.38 2.52385 -2.79247 0
M  V30 4895 C 482.527 1.29749 -2.45073 0
M  V30 4896 H 485.478 0.296467 -1.55906 0
M  V30 4897 H 485.499 2.83569 -2.53711 0
M  V30 4898 H 485.011 1.37412 -3.62959 0
M  V30 4899 H 483.112 3.17673 -1.94716 0
M  V30 4900 H 483.225 2.90293 -3.81139 0
M  V30 4901 H 481.589 1.61912 -1.96612 0
M  V30 4902 H 482.372 0.698555 -3.36118 0
M  V30 4903 N 484.817 1.37938 0.762283 0
M  V30 4904 C 485.747 1.37176 1.88958 0
M  V30 4905 C 486.728 0.238945 1.68413 0
M  V30 4906 O 487.913 0.440726 1.89133 0
M  V30 4907 C 485.043 1.18742 3.2637 0
M  V30 4908 C 483.997 2.29136 3.61498 0
M  V30 4909 C 483.323 1.95816 4.97554 0
M  V30 4910 C 484.623 3.71363 3.6727 0
M  V30 4911 H 486.317 2.31509 1.89853 0
M  V30 4912 H 483.863 1.11438 0.912005 0
M  V30 4913 H 485.816 1.16837 4.04879 0
M  V30 4914 H 484.54 0.208683 3.25933 0
M  V30 4915 H 483.199 2.30213 2.85303 0
M  V30 4916 H 482.847 0.964475 4.93667 0
M  V30 4917 H 482.547 2.69745 5.22026 0
M  V30 4918 H 484.071 1.95513 5.78452 0
M  V30 4919 H 485.485 3.72364 4.35911 0
M  V30 4920 H 483.882 4.44425 4.03245 0
M  V30 4921 H 484.952 4.04305 2.67704 0
M  V30 4922 N 486.295 -0.989507 1.22664 0
M  V30 4923 C 487.541 -1.7321 1.05481 0
M  V30 4924 C 487.874 -1.89852 -0.408635 0
M  V30 4925 O 487.149 -1.44416 -1.30285 0
M  V30 4926 C 487.432 -3.1357 1.77047 0
M  V30 4927 C 487.285 -3.04555 3.31008 0
M  V30 4928 C 488.604 -4.12812 1.5256 0
M  V30 4929 H 485.723 -0.628697 0.384589 0
M  V30 4930 H 488.365 -1.15258 1.51049 0
M  V30 4931 H 486.515 -3.63046 1.3831 0
M  V30 4932 H 488.187 -2.62674 3.7921 0
M  V30 4933 H 486.43 -2.41278 3.6051 0
M  V30 4934 H 487.101 -4.03894 3.76263 0
M  V30 4935 H 489.577 -3.72106 1.86215 0
M  V30 4936 H 488.453 -5.09132 2.05124 0
M  V30 4937 H 488.714 -4.39711 0.458936 0
M  V30 4938 N 487.773 -1.03688 -1.18687 0
M  V30 4939 C 488.998 -0.757819 -1.93059 0
M  V30 4940 C 489.423 0.678353 -1.75442 0
M  V30 4941 O 488.781 1.46938 -1.06203 0
M  V30 4942 C 488.829 -1.12423 -3.42627 0
M  V30 4943 O 487.933 -0.247505 -4.11657 0
M  V30 4944 H 487.274 -0.279245 -0.602427 0
M  V30 4945 H 489.804 -1.3857 -1.5053 0
M  V30 4946 H 489.814 -1.08454 -3.93322 0
M  V30 4947 H 488.489 -2.17049 -3.54771 0
M  V30 4948 H 487.066 -0.34649 -3.71287 0
M  V30 4949 N 489.251 1.34841 -0.815825 0
M  V30 4950 C 490.181 2.32187 -0.247298 0
M  V30 4951 C 491.162 1.5791 0.632344 0
M  V30 4952 O 492.347 1.8593 0.560698 0
M  V30 4953 C 489.477 3.42122 0.597466 0
M  V30 4954 C 488.431 4.27602 -0.184446 0
M  V30 4955 C 487.757 5.28942 0.782609 0
M  V30 4956 C 489.057 5.03502 -1.38865 0
M  V30 4957 H 490.751 2.79985 -1.06061 0
M  V30 4958 H 488.297 1.34611 -0.511461 0
M  V30 4959 H 490.25 4.09232 1.00533 0
M  V30 4960 H 488.974 2.92956 1.44376 0
M  V30 4961 H 487.633 3.62085 -0.573592 0
M  V30 4962 H 487.281 4.7604 1.62466 0
M  V30 4963 H 486.981 5.87008 0.263695 0
M  V30 4964 H 488.505 5.98922 1.18848 0
M  V30 4965 H 489.919 5.63506 -1.05518 0
M  V30 4966 H 488.316 5.71108 -1.8427 0
M  V30 4967 H 489.386 4.33608 -2.17054 0
M  V30 4968 N 490.729 0.570148 1.46925 0
M  V30 4969 C 492.006 -0.0153259 1.95594 0
M  V30 4970 C 492.386 -1.47232 1.51281 0
M  V30 4971 O 491.734 -2.15574 0.757624 0
M  V30 4972 C 491.944 0.143624 3.48704 0
M  V30 4973 C 493.292 0.00494484 4.246 0
M  V30 4974 O 494.316 0.0718214 3.56128 0
M  V30 4975 O 493.175 -0.141175 5.46318 0
M  V30 4976 H 490.269 -0.0568819 0.825041 0
M  V30 4977 H 492.815 0.637583 1.57267 0
M  V30 4978 H 491.587 1.15699 3.73804 0
M  V30 4979 H 491.21 -0.5463 3.93829 0
M  V30 4980 N 492.207 -1.54576 0.307264 0
M  V30 4981 C 493.453 -2.0056 -0.300612 0
M  V30 4982 C 493.786 -1.1953 -1.53057 0
M  V30 4983 O 493.061 -0.27337 -1.92569 0
M  V30 4984 C 493.344 -3.54167 -0.650987 0
M  V30 4985 C 493.197 -4.45933 0.588539 0
M  V30 4986 C 494.516 -4.14645 -1.47506 0
M  V30 4987 H 491.635 -0.729075 -0.107788 0
M  V30 4988 H 494.277 -1.85286 0.420606 0
M  V30 4989 H 492.427 -3.67313 -1.26544 0
M  V30 4990 H 494.099 -4.44683 1.22697 0
M  V30 4991 H 492.342 -4.16274 1.22058 0
M  V30 4992 H 493.013 -5.51189 0.299153 0
M  V30 4993 H 495.489 -4.04973 -0.955821 0
M  V30 4994 H 494.365 -5.22269 -1.68899 0
M  V30 4995 H 494.626 -3.66921 -2.4662 0
M  V30 4996 N 493.685 -0.035106 -1.57561 0
M  V30 4997 C 494.648 0.929819 -2.09492 0
M  V30 4998 C 495.648 1.25026 -1.01119 0
M  V30 4999 O 496.838 1.18961 -1.27255 0
M  V30 5000 C 493.97 2.24457 -2.56577 0
M  V30 5001 H 495.163 0.479935 -2.96035 0
M  V30 5002 H 492.716 0.213033 -1.54841 0
M  V30 5003 H 493.451 2.74061 -1.73382 0
M  V30 5004 H 493.236 2.02508 -3.35757 0
M  V30 5005 H 494.726 2.93607 -2.96959 0
M  V30 5006 N 495.163 1.55791 0.238111 0
M  V30 5007 C 496.126 1.90239 1.27835 0
M  V30 5008 C 497.126 0.779552 1.4064 0
M  V30 5009 O 498.316 1.04747 1.3919 0
M  V30 5010 C 495.448 2.13859 2.65475 0
M  V30 5011 H 496.641 2.83262 0.985034 0
M  V30 5012 H 494.194 1.48818 0.477799 0
M  V30 5013 H 494.929 1.23334 2.99932 0
M  V30 5014 H 494.714 2.95643 2.57561 0
M  V30 5015 H 496.204 2.41664 3.40571 0
M  V30 5016 N 496.642 -0.504142 1.49319 0
M  V30 5017 C 497.592 -1.60284 1.62151 0
M  V30 5018 C 498.576 -1.53657 0.477315 0
M  V30 5019 O 499.768 -1.6124 0.730108 0
M  V30 5020 C 496.897 -2.98909 1.68844 0
M  V30 5021 C 495.983 -3.10544 2.8883 0
M  V30 5022 N 496.374 -2.92078 4.12946 0
M  V30 5023 C 494.672 -3.4164 2.86702 0
M  V30 5024 C 495.373 -3.07812 4.93585 0
M  V30 5025 N 494.349 -3.36549 4.26891 0
M  V30 5026 H 498.151 -1.44656 2.55835 0
M  V30 5027 H 495.665 -0.710198 1.46048 0
M  V30 5028 H 497.662 -3.77865 1.76134 0
M  V30 5029 H 496.322 -3.15609 0.762943 0
M  V30 5030 H 497.333 -2.68316 4.42975 0
M  V30 5031 H 494.01 -3.64537 2.03517 0
M  V30 5032 H 495.4 -2.98054 6.02174 0
M  V30 5033 N 498.12 -1.38341 -0.754957 0
M  V30 5034 C 499.03 -1.3769 -1.89944 0
M  V30 5035 C 500.046 -0.274194 -1.71826 0
M  V30 5036 O 501.222 -0.512391 -1.94773 0
M  V30 5037 C 498.287 -1.19938 -3.25293 0
M  V30 5038 C 497.348 -2.40001 -3.55946 0
M  V30 5039 C 496.581 -2.23087 -4.84838 0
M  V30 5040 O 496.804 -1.22386 -5.57116 0
M  V30 5041 O 495.738 -3.11646 -5.14937 0
M  V30 5042 H 499.564 -2.3412 -1.93446 0
M  V30 5043 H 497.149 -1.19246 -0.900044 0
M  V30 5044 H 499.031 -1.12093 -4.06218 0
M  V30 5045 H 497.706 -0.265919 -3.22606 0
M  V30 5046 H 496.613 -2.53421 -2.75188 0
M  V30 5047 H 497.946 -3.31973 -3.63394 0
M  V30 5048 N 499.598 0.982988 -1.23187 0
M  V30 5049 C 500.844 1.72648 -1.06398 0
M  V30 5050 C 501.177 1.90066 0.398561 0
M  V30 5051 O 500.452 1.45105 1.29518 0
M  V30 5052 C 500.735 3.12627 -1.78707 0
M  V30 5053 C 500.588 3.02795 -3.32618 0
M  V30 5054 C 501.907 4.11997 -1.54747 0
M  V30 5055 H 499.026 0.626649 -0.387918 0
M  V30 5056 H 501.668 1.14455 -1.51658 0
M  V30 5057 H 499.818 3.62308 -1.40234 0
M  V30 5058 H 501.49 2.60659 -3.80598 0
M  V30 5059 H 499.733 2.39362 -3.61785 0
M  V30 5060 H 500.404 4.01893 -3.78399 0
M  V30 5061 H 502.88 3.71114 -1.88186 0
M  V30 5062 H 501.756 5.08037 -2.07821 0
M  V30 5063 H 502.017 4.39462 -0.482249 0
M  V30 5064 N 501.076 1.04316 1.18135 0
M  V30 5065 C 502.301 0.768047 1.92655 0
M  V30 5066 C 502.726 -0.66904 1.758 0
M  V30 5067 O 502.084 -1.46372 1.06981 0
M  V30 5068 C 502.132 1.14239 3.42026 0
M  V30 5069 O 501.236 0.269333 4.1152 0
M  V30 5070 H 500.577 0.282436 0.600937 0
M  V30 5071 H 503.107 1.39367 1.49793 0
M  V30 5072 H 503.117 1.10538 3.92741 0
M  V30 5073 H 501.792 2.18928 3.53615 0
M  V30 5074 H 500.369 0.366175 3.71098 0
M  V30 5075 N 502.554 -1.34406 0.822964 0
M  V30 5076 C 503.504 -2.26963 0.217208 0
M  V30 5077 C 504.488 -1.48536 -0.618545 0
M  V30 5078 O 505.68 -1.7056 -0.473118 0
M  V30 5079 C 502.809 -3.37655 -0.619973 0
M  V30 5080 C 501.895 -4.23495 0.226411 0
M  V30 5081 N 502.286 -4.88876 1.29744 0
M  V30 5082 C 500.584 -4.45999 0.0107554 0
M  V30 5083 C 501.285 -5.52642 1.81553 0
M  V30 5084 N 500.261 -5.31949 1.11942 0
M  V30 5085 H 504.063 -2.75017 1.03647 0
M  V30 5086 H 501.577 -1.48126 0.665777 0
M  V30 5087 H 503.574 -4.02932 -1.07011 0
M  V30 5088 H 502.234 -2.91151 -1.43739 0
M  V30 5089 H 503.245 -4.89886 1.68024 0
M  V30 5090 H 499.922 -4.10253 -0.774495 0
M  V30 5091 H 501.312 -6.14755 2.71156 0
M  V30 5092 N 504.032 -0.577932 -1.46621 0
M  V30 5093 C 505.28 -0.061566 -2.02006 0
M  V30 5094 C 505.601 1.30117 -1.4524 0
M  V30 5095 O 504.871 1.85313 -0.63529 0
M  V30 5096 H 503.451 -0.0197692 -0.746738 0
M  V30 5097 H 506.113 -0.752631 -1.79782 0
M  V30 5098 H 505.209 0.0110238 -3.12098 0
M  V30 5099 N 505.51 1.54411 -0.315457 0
M  V30 5100 C 506.757 2.00419 0.289543 0
M  V30 5101 C 507.085 1.20373 1.52776 0
M  V30 5102 O 506.34 0.271769 1.93804 0
M  V30 5103 C 506.639 3.50936 0.676652 0
M  V30 5104 C 506.305 4.48532 -0.461472 0
M  V30 5105 C 504.967 4.74936 -0.773879 0
M  V30 5106 C 507.319 5.06567 -1.22637 0
M  V30 5107 C 504.647 5.56634 -1.85405 0
M  V30 5108 C 506.999 5.89441 -2.29657 0
M  V30 5109 C 505.663 6.1415 -2.61488 0
M  V30 5110 H 504.933 0.733386 0.105951 0
M  V30 5111 H 507.58 1.86434 -0.437554 0
M  V30 5112 H 505.885 3.62606 1.48405 0
M  V30 5113 H 507.582 3.83971 1.15618 0
M  V30 5114 H 504.172 4.28096 -0.207893 0
M  V30 5115 H 508.356 4.86157 -0.998271 0
M  V30 5116 H 503.612 5.74012 -2.10523 0
M  V30 5117 H 507.786 6.33432 -2.89374 0
M  V30 5118 H 505.413 6.77245 -3.45317 0
M  V30 5119 N 506.988 0.0434614 1.5754 0
M  V30 5120 C 508.216 -0.641835 1.96693 0
M  V30 5121 C 508.631 -1.64832 0.920652 0
M  V30 5122 O 507.988 -1.82247 -0.095993 0
M  V30 5123 C 508.039 -1.33557 3.35924 0
M  V30 5124 O 507.76 -0.369403 4.3654 0
M  V30 5125 C 509.261 -2.11135 3.89791 0
M  V30 5126 H 506.481 -0.176013 0.647503 0
M  V30 5127 H 509.025 0.107478 2.04217 0
M  V30 5128 H 507.18 -2.03617 3.29574 0
M  V30 5129 H 507.594 -0.863674 5.1734 0
M  V30 5130 H 509.068 -2.55107 4.89514 0
M  V30 5131 H 509.545 -2.95634 3.24803 0
M  V30 5132 H 510.151 -1.46002 3.99454 0
M  V30 5133 N 508.466 -1.55915 -0.229846 0
M  V30 5134 C 509.376 -1.94891 -1.30593 0
M  V30 5135 C 510.392 -0.851604 -1.51736 0
M  V30 5136 O 511.568 -1.15447 -1.65027 0
M  V30 5137 C 508.633 -2.25052 -2.63728 0
M  V30 5138 C 507.694 -3.48306 -2.5096 0
M  V30 5139 C 506.927 -3.77019 -3.77747 0
M  V30 5140 O 507.15 -3.07534 -4.80395 0
M  V30 5141 O 506.084 -4.70523 -3.75356 0
M  V30 5142 H 509.91 -2.86581 -1.00525 0
M  V30 5143 H 507.495 -1.43017 -0.432025 0
M  V30 5144 H 509.377 -2.45682 -3.42372 0
M  V30 5145 H 508.052 -1.36538 -2.93495 0
M  V30 5146 H 506.959 -3.32964 -1.70546 0
M  V30 5147 H 508.292 -4.37177 -2.26136 0
M  V30 5148 N 509.944 0.496216 -1.49584 0
M  V30 5149 C 510.876 1.61404 -1.62731 0
M  V30 5150 C 511.889 1.54613 -0.50978 0
M  V30 5151 O 513.078 1.60458 -0.782017 0
M  V30 5152 C 510.178 3.00212 -1.57245 0
M  V30 5153 C 509.351 3.32138 -2.84611 0
M  V30 5154 C 508.41 4.5038 -2.72112 0
M  V30 5155 O 507.436 4.51926 -3.46051 0
M  V30 5156 N 508.638 5.50575 -1.83977 0
M  V30 5157 H 511.403 1.50552 -2.59141 0
M  V30 5158 H 508.964 0.684182 -1.46733 0
M  V30 5159 H 510.956 3.77241 -1.4653 0
M  V30 5160 H 509.526 3.04964 -0.686729 0
M  V30 5161 H 508.746 2.4396 -3.09641 0
M  V30 5162 H 510.034 3.50268 -3.69039 0
M  V30 5163 H 509.432 5.52128 -1.23171 0
M  V30 5164 H 507.989 6.26687 -1.79182 0
M  V30 5165 N 511.423 1.38739 0.74761 0
M  V30 5166 C 512.371 1.36573 1.88283 0
M  V30 5167 C 513.365 0.250712 1.67534 0
M  V30 5168 O 514.571 0.420073 1.7503 0
M  V30 5169 H 510.946 0.42619 0.619569 0
M  V30 5170 H 512.917 2.32356 1.87226 0
M  V30 5171 C 511.666 1.21361 3.25832 0
M  V30 5172 H 510.989 2.06424 3.42388 0
M  V30 5173 H 512.429 1.23901 4.05493 0
M  V30 5174 C 510.888 -0.0790099 3.36807 0
M  V30 5175 O 511.418 -1.05385 3.8763 0
M  V30 5176 N 509.624 -0.13785 2.90273 0
M  V30 5177 H 509.171 0.656128 2.49104 0
M  V30 5178 H 509.129 -1.00228 2.97996 0
M  V30 5179 N 512.901 -0.976442 1.23707 0
M  V30 5180 C 514.126 -1.75875 1.09922 0
M  V30 5181 C 514.551 -1.84911 -0.34489 0
M  V30 5182 O 513.909 -1.31363 -1.24954 0
M  V30 5183 C 513.957 -3.16179 1.73388 0
M  V30 5184 O 513.061 -4.00124 0.99871 0
M  V30 5185 H 512.402 -0.540954 0.385052 0
M  V30 5186 H 514.932 -1.22546 1.6384 0
M  V30 5187 H 514.942 -3.66741 1.78788 0
M  V30 5188 H 513.617 -3.08917 2.78466 0
M  V30 5189 H 512.194 -3.58624 1.02193 0
M  V30 5190 N 514.379 -1.04941 -1.1758 0
M  V30 5191 C 515.627 -0.756492 -1.87408 0
M  V30 5192 C 515.948 0.718478 -1.81281 0
M  V30 5193 O 515.218 1.519 -1.23706 0
M  V30 5194 H 513.798 -0.276841 -0.693807 0
M  V30 5195 H 516.46 -1.32803 -1.42652 0
M  V30 5196 H 515.556 -1.06918 -2.93215 0
M  V30 5197 N 515.857 1.33968 -0.830081 0
M  V30 5198 C 516.787 2.31911 -0.271911 0
M  V30 5199 C 517.768 1.58571 0.61556 0
M  V30 5200 O 518.953 1.86514 0.540946 0
M  V30 5201 C 516.083 3.42737 0.561146 0
M  V30 5202 C 515.037 4.27383 -0.229789 0
M  V30 5203 C 514.363 5.29742 0.726463 0
M  V30 5204 C 515.663 5.02 -1.44197 0
M  V30 5205 H 517.357 2.78844 -1.09025 0
M  V30 5206 H 514.903 1.34061 -0.52571 0
M  V30 5207 H 516.856 4.10276 0.961867 0
M  V30 5208 H 515.58 2.94471 1.41261 0
M  V30 5209 H 514.239 3.61456 -0.611964 0
M  V30 5210 H 513.887 4.77736 1.57408 0
M  V30 5211 H 513.587 5.87255 0.20142 0
M  V30 5212 H 515.111 6.00149 1.12489 0
M  V30 5213 H 516.525 5.62355 -1.11488 0
M  V30 5214 H 514.922 5.69122 -1.90317 0
M  V30 5215 H 515.992 4.31281 -2.2164 0
M  V30 5216 N 517.335 0.585699 1.46312 0
M  V30 5217 C 518.584 0.0701192 2.01578 0
M  V30 5218 C 518.897 -1.29889 1.46247 0
M  V30 5219 O 520.103 -1.90598 1.93351 0
M  V30 5220 C 518.559 0.0747499 3.59822 0
M  V30 5221 C 518.167 1.44226 4.24149 0
M  V30 5222 C 519.911 -0.38673 4.22735 0
M  V30 5223 C 517.818 1.40446 5.74481 0
M  V30 5224 H 516.748 0.0224441 0.753666 0
M  V30 5225 H 519.399 0.737789 1.68015 0
M  V30 5226 H 517.781 -0.659144 3.90476 0
M  V30 5227 H 518.955 2.19612 4.05101 0
M  V30 5228 H 517.27 1.84401 3.73343 0
M  V30 5229 H 519.867 -0.433853 5.32937 0
M  V30 5230 H 520.21 -1.40489 3.91878 0
M  V30 5231 H 520.743 0.293195 3.96718 0
M  V30 5232 H 517.482 2.39952 6.10003 0
M  V30 5233 H 517.002 0.692845 5.95785 0
M  V30 5234 H 518.681 1.11865 6.37256 0
M  V30 5235 N 518.813 -1.54241 0.323641 0
M  V30 5236 C 520.043 -2.04687 -0.280464 0
M  V30 5237 C 520.451 -1.19939 -1.46326 0
M  V30 5238 O 519.794 -0.222872 -1.82343 0
M  V30 5239 C 519.856 -3.50978 -0.778123 0
M  V30 5240 C 519.52 -4.56127 0.282371 0
M  V30 5241 C 520.517 -5.07726 1.11847 0
M  V30 5242 C 518.202 -5.00451 0.430582 0
M  V30 5243 C 520.196 -6.02212 2.08851 0
M  V30 5244 C 517.883 -5.94752 1.40404 0
M  V30 5245 C 518.881 -6.45519 2.23147 0
M  V30 5246 O 518.569 -7.37968 3.1884 0
M  V30 5247 H 518.301 -0.673192 -0.0615473 0
M  V30 5248 H 520.855 -1.99999 0.467921 0
M  V30 5249 H 519.085 -3.53064 -1.57742 0
M  V30 5250 H 520.774 -3.84499 -1.30058 0
M  V30 5251 H 521.54 -4.74261 1.01496 0
M  V30 5252 H 517.419 -4.6055 -0.203569 0
M  V30 5253 H 520.963 -6.41761 2.73474 0
M  V30 5254 H 516.86 -6.27633 1.5082 0
M  V30 5255 H 517.628 -7.55841 3.14079 0
M  V30 5256 N 520.291 -0.0518155 -1.57515 0
M  V30 5257 C 521.707 0.304735 -1.56664 0
M  V30 5258 C 521.907 1.71395 -1.05953 0
M  V30 5259 O 520.963 2.42123 -0.716414 0
M  V30 5260 C 522.276 0.132614 -3.00407 0
M  V30 5261 C 523.824 0.20367 -3.12337 0
M  V30 5262 C 524.299 0.0600706 -4.57961 0
M  V30 5263 N 525.79 0.116326 -4.63054 0
M  V30 5264 C 526.525 0.0293363 -5.73392 0
M  V30 5265 N 526.021 -0.110038 -6.92713 0
M  V30 5266 N 527.814 0.0849651 -5.62036 0
M  V30 5267 H 519.965 -0.973056 -1.888 0
M  V30 5268 H 522.228 -0.377781 -0.869474 0
M  V30 5269 H 521.934 -0.839019 -3.41546 0
M  V30 5270 H 521.808 0.893376 -3.66468 0
M  V30 5271 H 524.195 1.16578 -2.71097 0
M  V30 5272 H 524.276 -0.587857 -2.48954 0
M  V30 5273 H 523.92 -0.898715 -4.99886 0
M  V30 5274 H 523.85 0.87075 -5.19351 0
M  V30 5275 H 526.341 0.22327 -3.7724 0
M  V30 5276 H 526.654 -0.169104 -7.72615 0
M  V30 5277 H 524.999 -0.145132 -6.94848 0
M  V30 5278 H 528.19 0.192411 -4.67704 0
M  V30 5279 H 528.363 0.0137131 -6.47999 0
M  V30 5280 N 521.769 1.56035 0.221574 0
M  V30 5281 C 523.017 1.78693 0.944102 0
M  V30 5282 C 523.338 0.620317 1.8487 0
M  V30 5283 O 522.608 -0.362784 1.92512 0
M  V30 5284 H 521.188 0.659082 0.351597 0
M  V30 5285 H 523.85 1.93497 0.233435 0
M  V30 5286 H 522.946 2.70837 1.55093 0
M  V30 5287 N 523.247 -0.488276 1.49845 0
M  V30 5288 C 524.179 -1.60539 1.63584 0
M  V30 5289 C 525.192 -1.5434 0.517972 0
M  V30 5290 O 526.381 -1.60041 0.790516 0
M  V30 5291 C 523.481 -2.99374 1.58835 0
M  V30 5292 C 522.654 -3.30624 2.86368 0
M  V30 5293 C 521.713 -4.4893 2.74496 0
M  V30 5294 O 520.739 -4.50085 3.48443 0
M  V30 5295 N 521.941 -5.49591 1.86894 0
M  V30 5296 H 524.706 -1.49176 2.59936 0
M  V30 5297 H 522.267 -0.67639 1.47094 0
M  V30 5298 H 524.259 -3.76459 1.48529 0
M  V30 5299 H 522.829 -3.04595 0.702892 0
M  V30 5300 H 522.049 -2.42314 3.1093 0
M  V30 5301 H 523.337 -3.48305 3.70892 0
M  V30 5302 H 522.735 -5.51467 1.26097 0
M  V30 5303 H 521.292 -6.25728 1.82503 0
M  V30 5304 N 524.725 -1.39134 -0.740242 0
M  V30 5305 C 525.95 -1.39518 -1.53459 0
M  V30 5306 C 526.375 0.00968883 -1.88098 0
M  V30 5307 O 525.733 0.995312 -1.51536 0
M  V30 5308 C 525.781 -2.26981 -2.802 0
M  V30 5309 O 524.885 -1.69609 -3.75908 0
M  V30 5310 H 524.226 -0.475328 -0.463637 0
M  V30 5311 H 526.756 -1.83064 -0.913717 0
M  V30 5312 H 526.766 -2.41309 -3.28989 0
M  V30 5313 H 525.441 -3.29081 -2.5432 0
M  V30 5314 H 524.018 -1.64495 -3.34658 0
M  V30 5315 N 526.204 0.969867 -1.24223 0
M  V30 5316 C 527.452 1.70918 -1.0785 0
M  V30 5317 C 527.773 1.91186 0.383763 0
M  V30 5318 O 527.043 1.48806 1.27411 0
M  V30 5319 H 525.623 0.633334 -0.396103 0
M  V30 5320 H 528.285 1.16689 -1.56108 0
M  V30 5321 H 527.381 2.69455 -1.57482 0
M  V30 5322 N 527.682 1.05563 1.17022 0
M  V30 5323 C 528.93 0.76642 1.87004 0
M  V30 5324 C 529.251 -0.708854 1.8166 0
M  V30 5325 O 528.521 -1.51242 1.2451 0
M  V30 5326 H 527.101 0.280516 0.692329 0
M  V30 5327 H 529.763 1.33557 1.41945 0
M  V30 5328 H 528.859 1.08472 2.92644 0
M  V30 5329 N 529.16 -1.33526 0.837174 0
M  V30 5330 C 530.093 -2.27192 0.214233 0
M  V30 5331 C 531.071 -1.49575 -0.637657 0
M  V30 5332 O 532.255 -1.78753 -0.598291 0
M  V30 5333 C 529.382 -3.31401 -0.699367 0
M  V30 5334 C 528.428 -4.26431 0.0768429 0
M  V30 5335 S 529.261 -5.15954 1.4336 0
M  V30 5336 C 530.417 -6.23692 0.525251 0
M  V30 5337 H 530.65 -2.79679 1.00831 0
M  V30 5338 H 528.183 -1.4079 0.633834 0
M  V30 5339 H 530.141 -3.91924 -1.22088 0
M  V30 5340 H 528.802 -2.77732 -1.46709 0
M  V30 5341 H 527.995 -5.00193 -0.618268 0
M  V30 5342 H 527.597 -3.70235 0.529364 0
M  V30 5343 H 529.889 -6.76931 -0.277575 0
M  V30 5344 H 530.832 -6.97283 1.23299 0
M  V30 5345 H 531.24 -5.64398 0.107351 0
M  V30 5346 N 530.638 -0.59345 -1.46 0
M  V30 5347 C 531.586 0.146268 -2.3214 0
M  V30 5348 C 532.58 0.873743 -1.45128 0
M  V30 5349 O 533.786 0.790912 -1.61693 0
M  V30 5350 H 530.161 0.0660349 -0.749095 0
M  V30 5351 H 532.132 -0.598895 -2.92328 0
M  V30 5352 C 530.881 1.1396 -3.28494 0
M  V30 5353 H 530.204 0.589252 -3.95434 0
M  V30 5354 H 531.644 1.62738 -3.91526 0
M  V30 5355 C 530.103 2.20604 -2.54628 0
M  V30 5356 O 530.633 3.28128 -2.31722 0
M  V30 5357 N 528.839 1.95502 -2.15005 0
M  V30 5358 H 528.386 1.0807 -2.33834 0
M  V30 5359 H 528.344 2.67064 -1.65904 0
M  V30 5360 N 532.116 1.54067 -0.331816 0
M  V30 5361 C 533.026 2.28322 0.539104 0
M  V30 5362 C 534.042 1.32985 1.1221 0
M  V30 5363 O 535.218 1.6601 1.1403 0
M  V30 5364 C 532.283 3.03277 1.68 0
M  V30 5365 C 531.344 4.14216 1.12798 0
M  V30 5366 C 530.577 4.85588 2.2145 0
M  V30 5367 O 530.8 4.56536 3.41952 0
M  V30 5368 O 529.734 5.72309 1.86404 0
M  V30 5369 H 533.56 3.03632 -0.0641692 0
M  V30 5370 H 531.145 1.49083 -0.0972365 0
M  V30 5371 H 533.027 3.50189 2.34405 0
M  V30 5372 H 531.702 2.30834 2.2693 0
M  V30 5373 H 530.609 3.71635 0.428782 0
M  V30 5374 H 531.942 4.88727 0.583698 0
M  V30 5375 N 533.594 0.0601682 1.57485 0
M  V30 5376 C 534.557 -0.896373 2.10945 0
M  V30 5377 C 535.557 -1.23402 1.03095 0
M  V30 5378 O 536.747 -1.16921 1.29132 0
M  V30 5379 C 533.879 -2.20346 2.60116 0
M  V30 5380 H 535.072 -0.432778 2.96761 0
M  V30 5381 H 532.625 -0.188372 1.55161 0
M  V30 5382 H 533.36 -2.71268 1.7772 0
M  V30 5383 H 533.145 -1.9714 3.38937 0
M  V30 5384 H 534.635 -2.88846 3.01592 0
M  V30 5385 N 535.072 -1.5615 -0.213296 0
M  V30 5386 C 536.319 -1.79546 -0.936462 0
M  V30 5387 C 536.647 -0.630337 -1.84003 0
M  V30 5388 O 535.902 0.384883 -1.91878 0
M  V30 5389 C 536.201 -3.08772 -1.79985 0
M  V30 5390 C 535.867 -4.38532 -1.04882 0
M  V30 5391 C 534.529 -4.73787 -0.841393 0
M  V30 5392 C 536.881 -5.18609 -0.51907 0
M  V30 5393 C 534.209 -5.86627 -0.0924403 0
M  V30 5394 C 536.561 -6.32229 0.216581 0
M  V30 5395 C 535.225 -6.6608 0.435191 0
M  V30 5396 H 534.495 -0.657004 -0.342676 0
M  V30 5397 H 537.142 -1.9041 -0.204051 0
M  V30 5398 H 535.447 -2.93065 -2.60038 0
M  V30 5399 H 537.144 -3.24077 -2.36168 0
M  V30 5400 H 533.734 -4.10855 -1.22048 0
M  V30 5401 H 537.918 -4.91801 -0.666775 0
M  V30 5402 H 533.174 -6.11338 0.087081 0
M  V30 5403 H 537.348 -6.93503 0.634538 0
M  V30 5404 H 534.975 -7.5336 1.01746 0
M  V30 5405 N 536.55 0.480323 -1.50102 0
M  V30 5406 C 537.775 1.26126 -1.64642 0
M  V30 5407 C 538.2 1.85257 -0.325823 0
M  V30 5408 O 537.558 1.66854 0.709194 0
M  V30 5409 C 537.606 2.35243 -2.73301 0
M  V30 5410 O 536.71 3.39646 -2.33911 0
M  V30 5411 H 536.051 0.371463 -0.550374 0
M  V30 5412 H 538.581 0.572696 -1.96421 0
M  V30 5413 H 538.591 2.80695 -2.96098 0
M  V30 5414 H 537.266 1.91574 -3.6915 0
M  V30 5415 H 535.843 2.99969 -2.21525 0
M  V30 5416 N 538.028 1.39524 0.732853 0
M  V30 5417 C 539.305 1.27373 1.48444 0
M  V30 5418 C 539.685 -0.115725 2.10783 0
M  V30 5419 O 539.033 -1.12713 1.98766 0
M  V30 5420 C 539.243 2.39966 2.53412 0
M  V30 5421 C 540.591 2.79384 3.19733 0
M  V30 5422 O 541.615 2.39431 2.63725 0
M  V30 5423 O 540.474 3.48353 4.21085 0
M  V30 5424 H 537.568 0.499272 0.659285 0
M  V30 5425 H 540.114 1.51403 0.766496 0
M  V30 5426 H 538.886 3.32845 2.05742 0
M  V30 5427 H 538.509 2.17612 3.32762 0
M  V30 5428 N 539.506 -0.963266 1.24736 0
M  V30 5429 C 540.439 -2.05758 0.986852 0
M  V30 5430 C 541.417 -1.62398 -0.0809272 0
M  V30 5431 O 542.601 -1.88414 0.0569347 0
M  V30 5432 C 539.728 -3.35135 0.490095 0
M  V30 5433 C 538.774 -3.97451 1.54709 0
M  V30 5434 S 539.607 -4.34519 3.12976 0
M  V30 5435 C 540.763 -5.67026 2.65014 0
M  V30 5436 H 540.996 -2.27539 1.91346 0
M  V30 5437 H 538.529 -1.10176 1.08169 0
M  V30 5438 H 540.487 -4.09962 0.21012 0
M  V30 5439 H 539.148 -3.11335 -0.415873 0
M  V30 5440 H 538.341 -4.90704 1.15003 0
M  V30 5441 H 537.943 -3.29071 1.77731 0
M  V30 5442 H 540.235 -6.44748 2.08102 0
M  V30 5443 H 541.178 -6.11594 3.56873 0
M  V30 5444 H 541.586 -5.25847 2.05294 0
M  V30 5445 N 540.985 -1.06182 -1.16461 0
M  V30 5446 C 541.948 -0.675723 -2.19013 0
M  V30 5447 C 542.948 0.277963 -1.58379 0
M  V30 5448 O 544.138 0.0604962 -1.74095 0
M  V30 5449 C 541.27 0.00591459 -3.40899 0
M  V30 5450 H 542.463 -1.58353 -2.54685 0
M  V30 5451 H 540.016 -0.856908 -1.30716 0
M  V30 5452 H 540.751 0.92652 -3.10783 0
M  V30 5453 H 540.536 -0.67984 -3.86161 0
M  V30 5454 H 542.026 0.26181 -4.16778 0
M  V30 5455 N 542.463 1.3308 -0.844243 0
M  V30 5456 C 543.711 1.97215 -0.441676 0
M  V30 5457 C 544.032 1.67185 1.0037 0
M  V30 5458 O 543.302 0.973588 1.69994 0
M  V30 5459 H 541.882 0.72959 -0.160335 0
M  V30 5460 H 544.544 1.62348 -1.07838 0
M  V30 5461 H 543.64 3.06698 -0.57815 0
M  V30 5462 N 543.941 0.601185 1.45683 0
M  V30 5463 C 544.851 -0.123395 2.34275 0
M  V30 5464 C 545.867 -0.86702 1.5086 0
M  V30 5465 O 547.043 -0.826049 1.8368 0
M  V30 5466 C 544.108 -1.11237 3.2837 0
M  V30 5467 C 543.169 -0.371405 4.2769 0
M  V30 5468 C 542.402 -1.31327 5.1729 0
M  V30 5469 O 542.625 -2.55078 5.10188 0
M  V30 5470 O 541.559 -0.813811 5.96373 0
M  V30 5471 H 545.385 0.604483 2.97623 0
M  V30 5472 H 542.97 0.361477 1.44961 0
M  V30 5473 H 544.852 -1.68214 3.8637 0
M  V30 5474 H 543.527 -1.82139 2.67595 0
M  V30 5475 H 542.434 0.24067 3.73325 0
M  V30 5476 H 543.767 0.296998 4.91303 0
M  V30 5477 N 545.419 -1.53889 0.339982 0
M  V30 5478 C 546.382 -2.23547 -0.50592 0
M  V30 5479 C 547.382 -1.23445 -1.03044 0
M  V30 5480 O 548.572 -1.47909 -0.920253 0
M  V30 5481 C 545.704 -2.95234 -1.7044 0
M  V30 5482 H 546.897 -2.99722 0.103247 0
M  V30 5483 H 544.45 -1.56033 0.0912804 0
M  V30 5484 H 545.185 -2.23236 -2.35236 0
M  V30 5485 H 544.97 -3.68654 -1.33553 0
M  V30 5486 H 546.46 -3.48258 -2.30447 0
M  V30 5487 N 546.897 -0.0685191 -1.57451 0
M  V30 5488 C 547.86 0.885173 -2.11417 0
M  V30 5489 C 548.86 1.22853 -1.03748 0
M  V30 5490 O 550.05 1.16235 -1.2975 0
M  V30 5491 C 547.182 2.18964 -2.61281 0
M  V30 5492 H 548.375 0.417034 -2.96986 0
M  V30 5493 H 545.928 0.18014 -1.55258 0
M  V30 5494 H 546.663 2.70321 -1.79156 0
M  V30 5495 H 546.448 1.9534 -3.39977 0
M  V30 5496 H 547.938 2.87242 -3.0312 0
M  V30 5497 N 548.375 1.56261 0.205012 0
M  V30 5498 C 549.285 1.96944 1.27476 0
M  V30 5499 C 550.301 0.875636 1.50362 0
M  V30 5500 O 551.477 1.18058 1.6317 0
M  V30 5501 C 548.542 2.29219 2.60115 0
M  V30 5502 C 547.603 3.52255 2.45387 0
M  V30 5503 C 546.836 3.8298 3.71701 0
M  V30 5504 O 547.059 3.15138 4.75441 0
M  V30 5505 O 545.993 4.76435 3.67823 0
M  V30 5506 H 549.819 2.88144 0.959527 0
M  V30 5507 H 547.404 1.43686 0.409217 0
M  V30 5508 H 549.286 2.51098 3.3842 0
M  V30 5509 H 547.961 1.4119 2.91285 0
M  V30 5510 H 546.868 3.35635 1.65227 0
M  V30 5511 H 548.201 4.40719 2.19152 0
M  V30 5512 N 549.853 -0.472356 1.50355 0
M  V30 5513 C 551.1 -1.22453 1.61281 0
M  V30 5514 C 551.428 -1.91972 0.31256 0
M  V30 5515 O 550.683 -1.82696 -0.701475 0
M  V30 5516 C 550.982 -2.29257 2.74182 0
M  V30 5517 C 550.648 -1.76999 4.14708 0
M  V30 5518 C 549.31 -1.62467 4.52944 0
M  V30 5519 C 551.662 -1.38215 5.0254 0
M  V30 5520 C 548.99 -1.07574 5.76754 0
M  V30 5521 C 551.342 -0.847638 6.26895 0
M  V30 5522 C 550.006 -0.688946 6.63935 0
M  V30 5523 H 549.276 -0.448087 0.590168 0
M  V30 5524 H 551.923 -0.520744 1.84284 0
M  V30 5525 H 550.228 -3.05538 2.45263 0
M  V30 5526 H 551.925 -2.87212 2.7984 0
M  V30 5527 H 548.515 -1.89276 3.84542 0
M  V30 5528 H 552.699 -1.48276 4.73633 0
M  V30 5529 H 547.955 -0.940237 6.04127 0
M  V30 5530 H 552.129 -0.538455 6.94315 0
M  V30 5531 H 549.756 -0.261435 7.5975 0
M  V30 5532 N 551.331 -1.39911 -0.725443 0
M  V30 5533 C 552.561 -1.40744 -1.51244 0
M  V30 5534 C 552.969 -0.00275403 -1.892 0
M  V30 5535 O 552.312 0.981299 -1.55294 0
M  V30 5536 C 552.374 -2.22527 -2.82351 0
M  V30 5537 C 552.038 -3.71053 -2.66774 0
M  V30 5538 C 553.035 -4.63916 -2.34686 0
M  V30 5539 C 550.72 -4.14753 -2.83347 0
M  V30 5540 C 552.714 -5.98463 -2.19366 0
M  V30 5541 C 550.401 -5.49372 -2.67644 0
M  V30 5542 C 551.399 -6.41042 -2.357 0
M  V30 5543 O 551.087 -7.73181 -2.20107 0
M  V30 5544 H 550.819 -0.482314 -0.473655 0
M  V30 5545 H 553.373 -1.84472 -0.903284 0
M  V30 5546 H 551.603 -1.73563 -3.45562 0
M  V30 5547 H 553.292 -2.15421 -3.44018 0
M  V30 5548 H 554.058 -4.31453 -2.21525 0
M  V30 5549 H 549.937 -3.43728 -3.072 0
M  V30 5550 H 553.481 -6.69979 -1.94354 0
M  V30 5551 H 549.378 -5.81424 -2.80387 0
M  V30 5552 H 550.146 -7.84008 -2.35103 0
M  V30 5553 N 552.809 0.956637 -1.25245 0
M  V30 5554 C 553.742 2.05232 -0.99775 0
M  V30 5555 C 554.72 1.62439 0.0723137 0
M  V30 5556 O 555.904 1.88381 -0.066926 0
M  V30 5557 C 553.031 3.34871 -0.507861 0
M  V30 5558 C 552.077 3.96625 -1.56815 0
M  V30 5559 S 552.91 4.32853 -3.15276 0
M  V30 5560 C 554.066 5.65613 -2.68017 0
M  V30 5561 H 554.299 2.26521 -1.9255 0
M  V30 5562 H 551.832 1.09601 -1.08752 0
M  V30 5563 H 553.79 4.09845 -0.231858 0
M  V30 5564 H 552.451 3.11551 0.399356 0
M  V30 5565 H 551.644 4.90087 -1.17604 0
M  V30 5566 H 551.246 3.28124 -1.79473 0
M  V30 5567 H 553.538 6.43635 -2.11518 0
M  V30 5568 H 554.481 6.09693 -3.60112 0
M  V30 5569 H 554.889 5.24751 -2.0808 0
M  V30 5570 N 554.287 1.06798 1.15896 0
M  V30 5571 C 555.703 0.792423 1.38538 0
M  V30 5572 C 555.903 -0.60592 1.92174 0
M  V30 5573 O 554.959 -1.36561 2.12385 0
M  V30 5574 C 556.272 1.86157 2.36149 0
M  V30 5575 C 557.82 1.88567 2.49823 0
M  V30 5576 C 558.295 2.9455 3.5072 0
M  V30 5577 N 559.786 2.93616 3.58251 0
M  V30 5578 C 560.521 3.72267 4.36125 0
M  V30 5579 N 560.017 4.60751 5.17379 0
M  V30 5580 N 561.81 3.60637 4.31158 0
M  V30 5581 H 553.961 1.96993 0.794198 0
M  V30 5582 H 556.224 0.853942 0.411688 0
M  V30 5583 H 555.93 2.86603 2.03843 0
M  V30 5584 H 555.804 1.71692 3.3586 0
M  V30 5585 H 558.191 0.887765 2.8143 0
M  V30 5586 H 558.272 2.0711 1.5013 0
M  V30 5587 H 557.916 3.94537 3.19849 0
M  V30 5588 H 557.846 2.73255 4.50155 0
M  V30 5589 H 560.337 2.29472 3.00252 0
M  V30 5590 H 560.65 5.17408 5.74028 0
M  V30 5591 H 558.995 4.64803 5.16704 0
M  V30 5592 H 562.186 2.90892 3.66742 0
M  V30 5593 H 562.359 4.22176 4.91601 0
M  V30 5594 N 555.766 -1.3263 0.851289 0
M  V30 5595 C 557.014 -1.96978 0.452128 0
M  V30 5596 C 557.335 -1.67715 -0.99482 0
M  V30 5597 O 556.605 -0.98259 -1.69476 0
M  V30 5598 H 555.185 -0.72873 0.164202 0
M  V30 5599 H 557.847 -1.61774 1.08698 0
M  V30 5600 H 556.943 -3.06387 0.594407 0
M  V30 5601 N 557.244 -0.608902 -1.45362 0
M  V30 5602 C 558.191 0.109172 -2.30542 0
M  V30 5603 C 559.161 0.858704 -1.42181 0
M  V30 5604 O 560.346 0.844178 -1.71109 0
M  V30 5605 C 557.486 1.09971 -3.27109 0
M  V30 5606 C 556.599 0.350911 -4.30572 0
M  V30 5607 C 555.734 1.33129 -5.14247 0
M  V30 5608 C 554.773 0.570377 -6.09437 0
M  V30 5609 N 553.91 1.5001 -6.85887 0
M  V30 5610 H 558.75 -0.623195 -2.91411 0
M  V30 5611 H 556.287 -0.319122 -1.43597 0
M  V30 5612 H 558.245 1.68714 -3.81564 0
M  V30 5613 H 556.875 1.79947 -2.67991 0
M  V30 5614 H 555.927 -0.352054 -3.78767 0
M  V30 5615 H 557.239 -0.242725 -4.98209 0
M  V30 5616 H 556.393 1.99074 -5.73109 0
M  V30 5617 H 555.132 1.95885 -4.46632 0
M  V30 5618 H 554.137 -0.102702 -5.49704 0
M  V30 5619 H 555.362 -0.0521607 -6.7908 0
M  V30 5620 H 553.308 2.11529 -6.2096 0
M  V30 5621 H 553.225 0.959934 -7.49881 0
M  V30 5622 H 554.493 2.14909 -7.49289 0
M  V30 5623 N 558.722 1.53707 -0.348139 0
M  V30 5624 C 559.67 2.26671 0.521808 0
M  V30 5625 C 560.664 1.28988 1.09811 0
M  V30 5626 O 561.87 1.4668 1.04332 0
M  V30 5627 H 558.245 0.728387 0.186968 0
M  V30 5628 H 560.216 2.98176 -0.115563 0
M  V30 5629 C 558.965 3.05591 1.6586 0
M  V30 5630 H 558.288 3.80589 1.22443 0
M  V30 5631 H 559.728 3.59851 2.24239 0
M  V30 5632 C 558.187 2.15366 2.59073 0
M  V30 5633 O 558.717 1.7528 3.61441 0
M  V30 5634 N 556.923 1.80352 2.27863 0
M  V30 5635 H 556.47 2.13149 1.44656 0
M  V30 5636 H 556.428 1.20268 2.90488 0
M  V30 5637 N 560.2 0.0768682 1.57412 0
M  V30 5638 C 561.477 -0.632359 1.85096 0
M  V30 5639 C 561.857 -1.87479 0.9703 0
M  V30 5640 O 561.205 -2.28469 0.0379062 0
M  V30 5641 C 561.415 -0.965174 3.35388 0
M  V30 5642 C 562.763 -1.33648 4.03018 0
M  V30 5643 O 563.787 -1.05675 3.40164 0
M  V30 5644 O 562.646 -1.85959 5.13889 0
M  V30 5645 H 559.74 -0.314574 0.764835 0
M  V30 5646 H 562.286 0.108184 1.69355 0
M  V30 5647 H 561.058 -0.0829745 3.91212 0
M  V30 5648 H 560.681 -1.76231 3.5641 0
M  V30 5649 N 561.678 -1.56367 -0.196722 0
M  V30 5650 C 562.925 -1.80529 -0.917366 0
M  V30 5651 C 563.253 -0.649817 -1.83324 0
M  V30 5652 O 562.508 0.36451 -1.92275 0
M  V30 5653 C 562.807 -3.10663 -1.767 0
M  V30 5654 C 562.473 -4.3962 -1.00225 0
M  V30 5655 C 561.135 -4.74653 -0.791095 0
M  V30 5656 C 563.487 -5.1913 -0.464035 0
M  V30 5657 C 560.815 -5.86692 -0.0302155 0
M  V30 5658 C 563.167 -6.31964 0.283625 0
M  V30 5659 C 561.831 -6.65581 0.505813 0
M  V30 5660 H 561.101 -0.660602 -0.335688 0
M  V30 5661 H 563.748 -1.90615 -0.183844 0
M  V30 5662 H 562.053 -2.95807 -2.56915 0
M  V30 5663 H 563.75 -3.26563 -2.32718 0
M  V30 5664 H 560.34 -4.12127 -1.17684 0
M  V30 5665 H 564.524 -4.9248 -0.614575 0
M  V30 5666 H 559.78 -6.11211 0.151917 0
M  V30 5667 H 563.954 -6.92791 0.708057 0
M  V30 5668 H 561.581 -7.52239 1.0973 0
M  V30 5669 N 563.156 0.464375 -1.50603 0
M  V30 5670 C 564.086 1.56944 -1.72889 0
M  V30 5671 C 565.067 1.59979 -0.577997 0
M  V30 5672 O 566.252 1.76138 -0.817855 0
M  V30 5673 C 563.382 2.95225 -1.8292 0
M  V30 5674 C 562.336 3.07056 -2.98162 0
M  V30 5675 C 561.662 4.47051 -2.93343 0
M  V30 5676 C 562.962 2.83648 -4.38567 0
M  V30 5677 H 564.656 1.38547 -2.65415 0
M  V30 5678 H 562.202 0.665082 -1.27721 0
M  V30 5679 H 564.155 3.72467 -1.97095 0
M  V30 5680 H 562.879 3.14793 -0.870209 0
M  V30 5681 H 561.538 2.32248 -2.83648 0
M  V30 5682 H 561.186 4.63547 -1.95276 0
M  V30 5683 H 560.886 4.55902 -3.70712 0
M  V30 5684 H 562.41 5.26304 -3.09575 0
M  V30 5685 H 563.824 3.50636 -4.53572 0
M  V30 5686 H 562.221 3.03937 -5.17438 0
M  V30 5687 H 563.291 1.79451 -4.50472 0
M  V30 5688 N 564.634 1.40294 0.718013 0
M  V30 5689 C 565.883 1.37746 1.4734 0
M  V30 5690 C 566.196 -0.0180754 1.95592 0
M  V30 5691 O 567.402 -0.166166 2.70991 0
M  V30 5692 C 565.858 2.4208 2.66318 0
M  V30 5693 C 565.466 3.87432 2.24945 0
M  V30 5694 C 567.21 2.48635 3.44065 0
M  V30 5695 C 565.117 4.83368 3.40748 0
M  V30 5696 H 564.047 0.512165 0.553356 0
M  V30 5697 H 566.698 1.66019 0.781661 0
M  V30 5698 H 565.08 2.06903 3.3765 0
M  V30 5699 H 566.254 4.3174 1.6105 0
M  V30 5700 H 564.569 3.8433 1.60249 0
M  V30 5701 H 567.166 3.17499 4.30231 0
M  V30 5702 H 567.509 1.51611 3.87711 0
M  V30 5703 H 568.042 2.82791 2.79775 0
M  V30 5704 H 564.781 5.81716 3.02136 0
M  V30 5705 H 564.301 4.43726 4.03568 0
M  V30 5706 H 565.98 5.03074 4.06848 0
M  V30 5707 N 566.112 -0.949982 1.2575 0
M  V30 5708 C 567.36 -1.6918 1.10555 0
M  V30 5709 C 567.681 -1.91773 -0.353298 0
M  V30 5710 O 566.951 -1.50814 -1.25027 0
M  V30 5711 H 565.531 -0.626952 0.406129 0
M  V30 5712 H 568.193 -1.1419 1.57945 0
M  V30 5713 H 567.289 -2.66915 1.61749 0
M  V30 5714 N 567.59 -1.07411 -1.15328 0
M  V30 5715 C 568.82 -0.817595 -1.89734 0
M  V30 5716 C 569.228 0.63297 -1.78298 0
M  V30 5717 O 568.571 1.44594 -1.13306 0
M  V30 5718 C 568.633 -1.14748 -3.40695 0
M  V30 5719 C 568.297 -2.59876 -3.75917 0
M  V30 5720 C 569.294 -3.58122 -3.76888 0
M  V30 5721 C 566.979 -2.95469 -4.06206 0
M  V30 5722 C 568.973 -4.89996 -4.07655 0
M  V30 5723 C 566.66 -4.2754 -4.36638 0
M  V30 5724 C 567.658 -5.24614 -4.37344 0
M  V30 5725 O 567.346 -6.54312 -4.67045 0
M  V30 5726 H 567.078 -0.295175 -0.608151 0
M  V30 5727 H 569.632 -1.43409 -1.47048 0
M  V30 5728 H 567.862 -0.47395 -3.83785 0
M  V30 5729 H 569.551 -0.873397 -3.96392 0
M  V30 5730 H 570.317 -3.31966 -3.53587 0
M  V30 5731 H 566.196 -2.20558 -4.04815 0
M  V30 5732 H 569.74 -5.65759 -4.08121 0
M  V30 5733 H 565.637 -4.53449 -4.59407 0
M  V30 5734 H 566.405 -6.59473 -4.84807 0
M  V30 5735 N 569.068 1.32177 -0.85831 0
M  V30 5736 C 570.345 1.91781 -0.384624 0
M  V30 5737 C 570.725 1.78171 1.13217 0
M  V30 5738 O 570.073 1.18209 1.95548 0
M  V30 5739 C 570.283 3.38414 -0.853047 0
M  V30 5740 C 571.631 4.15542 -0.872359 0
M  V30 5741 O 572.655 3.47148 -0.797926 0
M  V30 5742 O 571.514 5.37678 -0.978009 0
M  V30 5743 H 568.608 0.819259 -0.112886 0
M  V30 5744 H 571.154 1.40923 -0.945453 0
M  V30 5745 H 569.926 3.4228 -1.89632 0
M  V30 5746 H 569.549 3.96683 -0.269874 0
M  V30 5747 N 570.547 0.616602 1.45037 0
M  V30 5748 C 571.796 0.112861 2.01384 0
M  V30 5749 C 572.109 -1.26758 1.48969 0
M  V30 5750 O 573.315 -1.86454 1.9735 0
M  V30 5751 C 571.771 0.151057 3.59583 0
M  V30 5752 C 571.379 1.53191 4.20995 0
M  V30 5753 C 573.123 -0.296974 4.2346 0
M  V30 5754 C 571.03 1.526 5.71373 0
M  V30 5755 H 569.96 0.0384254 0.75302 0
M  V30 5756 H 572.611 0.773262 1.66412 0
M  V30 5757 H 570.993 -0.57617 3.91786 0
M  V30 5758 H 572.167 2.28156 4.00352 0
M  V30 5759 H 570.482 1.92279 3.69348 0
M  V30 5760 H 573.079 -0.320712 5.33737 0
M  V30 5761 H 573.422 -1.32145 3.9477 0
M  V30 5762 H 573.955 0.377279 3.96007 0
M  V30 5763 H 570.694 2.52837 6.04776 0
M  V30 5764 H 570.214 0.819064 5.94181 0
M  V30 5765 H 571.893 1.25357 6.3474 0
M  V30 5766 N 572.025 -1.5352 0.356285 0
M  V30 5767 C 572.972 -2.25439 -0.494569 0
M  V30 5768 C 573.942 -1.25752 -1.08516 0
M  V30 5769 O 575.127 -1.54513 -1.1194 0
M  V30 5770 C 572.267 -3.04011 -1.63313 0
M  V30 5771 C 571.38 -4.18574 -1.06862 0
M  V30 5772 C 570.515 -4.84607 -2.17552 0
M  V30 5773 C 569.554 -5.91218 -1.58518 0
M  V30 5774 N 568.691 -6.50979 -2.63003 0
M  V30 5775 H 573.531 -2.97737 0.125244 0
M  V30 5776 H 571.068 -1.46916 0.0735789 0
M  V30 5777 H 573.026 -3.47834 -2.30363 0
M  V30 5778 H 571.656 -2.33986 -2.22374 0
M  V30 5779 H 570.708 -3.79303 -0.288672 0
M  V30 5780 H 572.02 -4.95215 -0.596924 0
M  V30 5781 H 571.174 -5.31566 -2.92442 0
M  V30 5782 H 569.913 -4.07418 -2.6807 0
M  V30 5783 H 568.918 -5.4363 -0.821391 0
M  V30 5784 H 570.143 -6.70322 -1.08836 0
M  V30 5785 H 568.089 -5.76648 -3.12751 0
M  V30 5786 H 568.006 -7.23131 -2.20493 0
M  V30 5787 H 569.274 -7.02589 -3.37623 0
M  V30 5788 N 573.503 -0.0852151 -1.57369 0
M  V30 5789 C 574.45 0.877268 -2.13478 0
M  V30 5790 C 575.42 1.28642 -1.05073 0
M  V30 5791 O 576.605 1.36992 -1.32808 0
M  V30 5792 C 573.745 2.13464 -2.71159 0
M  V30 5793 C 572.858 1.77691 -3.93764 0
M  V30 5794 C 571.993 2.98139 -4.39643 0
M  V30 5795 C 571.032 2.58447 -5.54862 0
M  V30 5796 N 570.169 3.71698 -5.95639 0
M  V30 5797 H 575.009 0.391933 -2.95411 0
M  V30 5798 H 572.546 0.181796 -1.45972 0
M  V30 5799 H 574.504 2.87086 -3.02717 0
M  V30 5800 H 573.134 2.59514 -1.91969 0
M  V30 5801 H 572.186 0.940768 -3.68583 0
M  V30 5802 H 573.498 1.44497 -4.77412 0
M  V30 5803 H 572.652 3.80026 -4.72933 0
M  V30 5804 H 571.391 3.34536 -3.54876 0
M  V30 5805 H 570.396 1.74984 -5.21211 0
M  V30 5806 H 571.621 2.23205 -6.41371 0
M  V30 5807 H 569.567 4.07831 -5.13819 0
M  V30 5808 H 569.484 3.42317 -6.74059 0
M  V30 5809 H 570.752 4.54123 -6.33555 0
M  V30 5810 N 574.981 1.5647 0.188427 0
M  V30 5811 C 576.229 1.80655 0.905986 0
M  V30 5812 C 576.55 0.659391 1.83513 0
M  V30 5813 O 575.82 -0.321868 1.93238 0
M  V30 5814 H 574.4 0.666391 0.337538 0
M  V30 5815 H 577.062 1.93949 0.192339 0
M  V30 5816 H 576.158 2.74066 1.49313 0
M  V30 5817 N 576.459 -0.456382 1.50847 0
M  V30 5818 C 577.684 -1.2349 1.66628 0
M  V30 5819 C 578.109 -1.84715 0.355254 0
M  V30 5820 O 577.467 -1.67961 -0.682559 0
M  V30 5821 C 577.515 -2.30865 2.77009 0
M  V30 5822 O 576.619 -3.35882 2.39285 0
M  V30 5823 H 575.96 -0.36266 0.556214 0
M  V30 5824 H 578.49 -0.541374 1.97308 0
M  V30 5825 H 578.5 -2.75949 3.00526 0
M  V30 5826 H 577.175 -1.85677 3.72152 0
M  V30 5827 H 575.752 -2.96406 2.26269 0
M  V30 5828 N 577.937 -1.40673 -0.710563 0
M  V30 5829 C 579.185 -1.38947 -1.46759 0
M  V30 5830 C 579.506 0.00572879 -1.94999 0
M  V30 5831 O 578.776 0.961358 -1.70689 0
M  V30 5832 H 577.356 -0.5114 -0.544499 0
M  V30 5833 H 580.018 -1.75773 -0.842012 0
M  V30 5834 H 579.114 -2.06745 -2.33801 0
M  V30 5835 N 579.415 0.9433 -1.26252 0
M  V30 5836 C 580.378 2.02326 -1.07689 0
M  V30 5837 C 581.378 1.60779 -0.0259174 0
M  V30 5838 O 582.568 1.72108 -0.269134 0
M  V30 5839 C 579.7 3.34886 -0.63752 0
M  V30 5840 H 580.893 2.20225 -2.0357 0
M  V30 5841 H 578.446 1.12197 -1.08819 0
M  V30 5842 H 579.181 3.22684 0.323377 0
M  V30 5843 H 578.966 3.66393 -1.39637 0
M  V30 5844 H 580.456 4.14231 -0.529418 0
M  V30 5845 N 580.893 1.08022 1.14757 0
M  V30 5846 C 581.823 0.728248 2.21853 0
M  V30 5847 C 582.804 -0.287486 1.67653 0
M  V30 5848 O 583.989 -0.158727 1.9355 0
M  V30 5849 C 581.119 0.132549 3.47047 0
M  V30 5850 C 580.073 1.07619 4.14249 0
M  V30 5851 C 579.399 0.342907 5.33599 0
M  V30 5852 C 580.699 2.41268 4.63235 0
M  V30 5853 H 582.393 1.62365 2.51551 0
M  V30 5854 H 579.939 0.782125 1.20908 0
M  V30 5855 H 581.892 -0.125665 4.21213 0
M  V30 5856 H 580.616 -0.797971 3.16702 0
M  V30 5857 H 579.275 1.31944 3.42033 0
M  V30 5858 H 578.923 -0.59129 4.99513 0
M  V30 5859 H 578.623 0.971955 5.79506 0
M  V30 5860 H 580.147 0.0926538 6.1053 0
M  V30 5861 H 581.561 2.21232 5.28894 0
M  V30 5862 H 579.958 2.9983 5.19829 0
M  V30 5863 H 581.028 3.03079 3.78512 0
M  V30 5864 N 582.371 -1.3172 0.865308 0
M  V30 5865 C 583.787 -1.4958 0.556596 0
M  V30 5866 C 583.987 -1.79763 -0.910353 0
M  V30 5867 O 583.043 -1.87351 -1.6928 0
M  V30 5868 C 584.356 -2.63277 1.45279 0
M  V30 5869 C 585.904 -2.77161 1.45433 0
M  V30 5870 C 586.379 -3.93949 2.33598 0
M  V30 5871 N 587.87 -4.01228 2.31453 0
M  V30 5872 C 588.605 -4.90855 2.96393 0
M  V30 5873 N 588.101 -5.85416 3.70486 0
M  V30 5874 N 589.894 -4.84063 2.85726 0
M  V30 5875 H 582.045 -1.10396 1.81456 0
M  V30 5876 H 584.308 -0.54507 0.775631 0
M  V30 5877 H 584.014 -2.47734 2.49641 0
M  V30 5878 H 583.888 -3.59309 1.14792 0
M  V30 5879 H 586.275 -2.9212 0.41831 0
M  V30 5880 H 586.356 -1.8181 1.79941 0
M  V30 5881 H 586 -3.79748 3.37274 0
M  V30 5882 H 585.93 -4.88598 1.96417 0
M  V30 5883 H 588.421 -3.3357 1.77593 0
M  V30 5884 H 588.734 -6.50525 4.17178 0
M  V30 5885 H 587.079 -5.85409 3.74594 0
M  V30 5886 H 590.27 -4.09163 2.27384 0
M  V30 5887 H 590.443 -5.53708 3.36617 0
M  V30 5888 N 583.85 -0.624285 -1.44708 0
M  V30 5889 C 585.08 -0.132726 -2.06173 0
M  V30 5890 C 585.488 1.19513 -1.46674 0
M  V30 5891 O 584.831 1.74254 -0.581491 0
M  V30 5892 C 584.893 0.0636732 -3.59444 0
M  V30 5893 C 584.557 -1.18496 -4.4137 0
M  V30 5894 C 585.553 -2.10706 -4.75288 0
M  V30 5895 C 583.239 -1.41846 -4.81856 0
M  V30 5896 C 585.233 -3.24582 -5.48567 0
M  V30 5897 C 582.92 -2.5602 -5.54885 0
M  V30 5898 C 583.918 -3.47215 -5.88159 0
M  V30 5899 O 583.606 -4.59399 -6.59703 0
M  V30 5900 H 583.338 -0.0737313 -0.671967 0
M  V30 5901 H 585.892 -0.856789 -1.86677 0
M  V30 5902 H 584.122 0.842809 -3.77404 0
M  V30 5903 H 585.811 0.508924 -4.02697 0
M  V30 5904 H 586.577 -1.93898 -4.44554 0
M  V30 5905 H 582.456 -0.717556 -4.55381 0
M  V30 5906 H 586 -3.95785 -5.74456 0
M  V30 5907 H 581.897 -2.72774 -5.85034 0
M  V30 5908 H 582.665 -4.58293 -6.78166 0
M  V30 5909 N 585.328 1.53329 -0.364422 0
M  V30 5910 C 586.261 2.22052 0.526145 0
M  V30 5911 C 587.239 1.21203 1.08391 0
M  V30 5912 O 588.423 1.50101 1.14026 0
M  V30 5913 C 585.55 2.91432 1.72583 0
M  V30 5914 C 584.596 4.06345 1.29562 0
M  V30 5915 S 585.429 5.34671 0.297885 0
M  V30 5916 C 586.585 6.07563 1.50392 0
M  V30 5917 H 586.818 2.97244 -0.0575055 0
M  V30 5918 H 584.351 1.53684 -0.148525 0
M  V30 5919 H 586.309 3.3202 2.41398 0
M  V30 5920 H 584.97 2.15966 2.28073 0
M  V30 5921 H 584.163 4.53901 2.19067 0
M  V30 5922 H 583.765 3.67642 0.686696 0
M  V30 5923 H 586.057 6.32224 2.43513 0
M  V30 5924 H 587 6.99973 1.06977 0
M  V30 5925 H 587.408 5.37994 1.70945 0
M  V30 5926 N 586.806 0.0935595 1.57322 0
M  V30 5927 C 588.083 -0.612692 1.85756 0
M  V30 5928 C 588.463 -1.86439 0.99013 0
M  V30 5929 O 587.811 -2.28416 0.0621362 0
M  V30 5930 C 588.021 -0.929547 3.36393 0
M  V30 5931 C 589.369 -1.29366 4.04413 0
M  V30 5932 O 590.393 -1.02061 3.41265 0
M  V30 5933 O 589.252 -1.80498 5.15832 0
M  V30 5934 H 586.346 -0.306444 0.768128 0
M  V30 5935 H 588.892 0.126141 1.69231 0
M  V30 5936 H 587.664 -0.0414766 3.91278 0
M  V30 5937 H 587.287 -1.72441 3.5826 0
M  V30 5938 N 588.284 -1.56567 -0.180126 0
M  V30 5939 C 589.216 -1.92275 -1.24751 0
M  V30 5940 C 590.229 -0.814922 -1.40936 0
M  V30 5941 O 591.418 -1.09336 -1.41095 0
M  V30 5942 C 588.518 -2.15265 -2.61752 0
M  V30 5943 C 587.691 -3.46467 -2.66981 0
M  V30 5944 C 586.75 -3.58391 -3.85283 0
M  V30 5945 O 585.776 -4.31086 -3.7169 0
M  V30 5946 N 586.978 -2.92587 -5.01371 0
M  V30 5947 H 589.743 -2.84435 -0.944302 0
M  V30 5948 H 587.304 -1.57617 -0.369952 0
M  V30 5949 H 589.296 -2.20515 -3.39345 0
M  V30 5950 H 587.866 -1.29533 -2.845 0
M  V30 5951 H 587.086 -3.52953 -1.75549 0
M  V30 5952 H 588.374 -4.32819 -2.67479 0
M  V30 5953 H 587.772 -2.3338 -5.15316 0
M  V30 5954 H 586.329 -3.03444 -5.76858 0
M  V30 5955 N 589.762 0.448376 -1.51087 0
M  V30 5956 C 591.173 1.0286 -1.5581 0
M  V30 5957 C 591.524 1.92583 -0.374989 0
M  V30 5958 O 590.649 2.10316 0.509533 0
M  V30 5959 C 591.244 1.87223 -2.8237 0
M  V30 5960 C 589.803 2.40314 -2.897 0
M  V30 5961 C 588.95 1.19238 -2.50355 0
M  V30 5962 H 591.901 0.230075 -1.57023 0
M  V30 5963 H 591.922 2.72553 -2.6551 0
M  V30 5964 H 591.434 1.21894 -3.68461 0
M  V30 5965 H 589.535 3.09129 -2.08014 0
M  V30 5966 H 589.648 2.73866 -3.93108 0
M  V30 5967 H 588.012 1.53428 -2.03303 0
M  V30 5968 H 588.795 0.555367 -3.38778 0
M  V30 5969 N 591.24 1.41047 0.703093 0
M  V30 5970 C 592.465 1.43537 1.49706 0
M  V30 5971 C 592.89 0.0401853 1.88057 0
M  V30 5972 O 592.248 -0.954785 1.54122 0
M  V30 5973 C 592.296 2.3433 2.74084 0
M  V30 5974 O 591.4 1.79515 3.71279 0
M  V30 5975 H 590.741 0.487454 0.450871 0
M  V30 5976 H 593.271 1.85422 0.86486 0
M  V30 5977 H 593.281 2.49947 3.22476 0
M  V30 5978 H 591.956 3.35708 2.45506 0
M  V30 5979 H 590.533 1.7331 3.30179 0
M  V30 5980 N 592.718 -0.936591 1.26751 0
M  V30 5981 C 594.134 -1.21095 1.03963 0
M  V30 5982 C 594.334 -2.00156 -0.232372 0
M  V30 5983 O 593.39 -2.3434 -0.940274 0
M  V30 5984 C 594.703 -1.96775 2.27377 0
M  V30 5985 C 596.251 -2.09749 2.32324 0
M  V30 5986 C 596.726 -2.88832 3.55443 0
M  V30 5987 N 598.217 -2.96404 3.55948 0
M  V30 5988 C 598.952 -3.58036 4.47881 0
M  V30 5989 N 598.448 -4.21132 5.50109 0
M  V30 5990 N 600.241 -3.55353 4.35523 0
M  V30 5991 H 592.392 -0.408173 2.08441 0
M  V30 5992 H 594.655 -0.243139 0.91629 0
M  V30 5993 H 594.361 -1.46094 3.19921 0
M  V30 5994 H 594.235 -2.97424 2.31989 0
M  V30 5995 H 596.622 -2.5962 1.40291 0
M  V30 5996 H 596.703 -1.08347 2.31721 0
M  V30 5997 H 596.347 -2.39647 4.47808 0
M  V30 5998 H 596.277 -3.90499 3.53296 0
M  V30 5999 H 598.768 -2.51552 2.82011 0
M  V30 6000 H 599.081 -4.66071 6.16439 0
M  V30 6001 H 597.426 -4.19705 5.53961 0
M  V30 6002 H 600.617 -3.05256 3.54875 0
M  V30 6003 H 600.79 -4.03097 5.07363 0
M  V30 6004 N 594.196 -1.08629 -1.14182 0
M  V30 6005 C 595.473 -0.73002 -1.81466 0
M  V30 6006 C 595.853 0.785996 -1.95922 0
M  V30 6007 O 595.201 1.70535 -1.52086 0
M  V30 6008 C 595.411 -1.45957 -3.17014 0
M  V30 6009 C 596.759 -1.62008 -3.92477 0
M  V30 6010 O 597.783 -1.42141 -3.26611 0
M  V30 6011 O 596.642 -1.94806 -5.106 0
M  V30 6012 H 593.736 -0.261307 -0.784632 0
M  V30 6013 H 596.282 -1.188 -1.2118 0
M  V30 6014 H 595.054 -2.49221 -3.01669 0
M  V30 6015 H 594.677 -0.993222 -3.84995 0
M  V30 6016 N 595.674 1.31259 -0.872281 0
M  V30 6017 C 596.922 1.96233 -0.483409 0
M  V30 6018 C 597.243 1.69276 0.968012 0
M  V30 6019 O 596.513 1.00943 1.67891 0
M  V30 6020 H 595.093 0.726025 -0.175774 0
M  V30 6021 H 597.755 1.60024 -1.11258 0
M  V30 6022 H 596.851 3.05403 -0.643075 0
M  V30 6023 N 597.152 0.631951 1.44375 0
M  V30 6024 C 598.568 0.297642 1.568 0
M  V30 6025 C 598.768 -1.19916 1.61934 0
M  V30 6026 O 597.824 -1.98324 1.56281 0
M  V30 6027 C 599.137 0.990286 2.83926 0
M  V30 6028 C 600.685 0.968507 2.97639 0
M  V30 6029 C 601.16 1.64163 4.27568 0
M  V30 6030 N 602.651 1.60826 4.34384 0
M  V30 6031 C 603.386 2.09802 5.33639 0
M  V30 6032 N 602.882 2.66973 6.39294 0
M  V30 6033 N 604.675 2.00426 5.25153 0
M  V30 6034 H 596.826 1.60353 1.39286 0
M  V30 6035 H 599.089 0.673142 0.667521 0
M  V30 6036 H 598.795 2.04519 2.8612 0
M  V30 6037 H 598.669 0.528563 3.73478 0
M  V30 6038 H 601.056 -0.0779247 2.94997 0
M  V30 6039 H 601.137 1.46873 2.09433 0
M  V30 6040 H 600.781 2.68752 4.3097 0
M  V30 6041 H 600.711 1.11624 5.14634 0
M  V30 6042 H 603.202 1.19087 3.58646 0
M  V30 6043 H 603.515 3.02074 7.11316 0
M  V30 6044 H 601.86 2.71024 6.39977 0
M  V30 6045 H 605.051 1.55483 4.41523 0
M  V30 6046 H 605.224 2.38906 6.02352 0
M  V30 6047 N 598.631 -1.53133 0.372548 0
M  V30 6048 C 599.856 -2.0625 -0.218098 0
M  V30 6049 C 600.281 -1.24375 -1.41111 0
M  V30 6050 O 599.639 -0.264554 -1.79359 0
M  V30 6051 C 599.687 -3.55858 -0.582876 0
M  V30 6052 O 598.791 -3.76667 -1.67917 0
M  V30 6053 H 598.132 -0.663317 -0.030104 0
M  V30 6054 H 600.662 -1.97477 0.535169 0
M  V30 6055 H 600.672 -3.99007 -0.851925 0
M  V30 6056 H 599.347 -4.14892 0.289428 0
M  V30 6057 H 597.924 -3.45413 -1.40513 0
M  V30 6058 N 600.109 -0.101901 -1.5727 0
M  V30 6059 C 601.358 0.559922 -1.93772 0
M  V30 6060 C 601.671 1.68913 -0.98629 0
M  V30 6061 O 602.877 2.41256 -1.24529 0
M  V30 6062 C 601.333 1.04739 -3.44322 0
M  V30 6063 C 600.941 -0.05243 -4.47969 0
M  V30 6064 C 602.685 1.68157 -3.89774 0
M  V30 6065 C 600.592 0.450781 -5.8968 0
M  V30 6066 H 599.522 0.212931 -0.723309 0
M  V30 6067 H 602.173 -0.179001 -1.82625 0
M  V30 6068 H 600.555 1.84021 -3.50645 0
M  V30 6069 H 601.729 -0.828157 -4.53297 0
M  V30 6070 H 600.044 -0.592202 -4.12167 0
M  V30 6071 H 602.641 2.0689 -4.93052 0
M  V30 6072 H 602.984 2.55338 -3.28798 0
M  V30 6073 H 603.517 0.954453 -3.8618 0
M  V30 6074 H 600.256 -0.38458 -6.54371 0
M  V30 6075 H 599.776 1.19336 -5.87809 0
M  V30 6076 H 601.455 0.917555 -6.40461 0
M  V30 6077 N 601.587 1.56661 0.17182 0
M  V30 6078 C 602.864 1.72838 0.915778 0
M  V30 6079 C 603.244 0.66316 2.00413 0
M  V30 6080 O 602.592 -0.322123 2.26218 0
M  V30 6081 C 602.802 3.16019 1.48097 0
M  V30 6082 C 604.15 3.76962 1.95408 0
M  V30 6083 O 605.174 3.19294 1.57892 0
M  V30 6084 O 604.033 4.78219 2.64516 0
M  V30 6085 H 601.127 0.705797 0.431021 0
M  V30 6086 H 603.673 1.68947 0.159689 0
M  V30 6087 H 602.445 3.85031 0.697618 0
M  V30 6088 H 602.068 3.24234 2.30126 0
M  V30 6089 N 603.065 -0.440357 1.51323 0
M  V30 6090 C 604.013 -1.55492 1.72988 0
M  V30 6091 C 605.007 -1.58564 0.596138 0
M  V30 6092 O 606.213 -1.62345 0.777443 0
M  V30 6093 H 602.588 -0.516532 0.546533 0
M  V30 6094 H 604.559 -1.34392 2.66423 0
M  V30 6095 C 603.308 -2.93176 1.86931 0
M  V30 6096 H 602.631 -2.91543 2.73574 0
M  V30 6097 H 604.071 -3.70537 2.06103 0
M  V30 6098 C 602.53 -3.30988 0.628365 0
M  V30 6099 O 603.06 -4.01106 -0.218367 0
M  V30 6100 N 601.266 -2.86719 0.473339 0
M  V30 6101 H 600.813 -2.2983 1.16345 0
M  V30 6102 H 600.771 -3.12381 -0.355727 0
M  V30 6103 N 604.543 -1.41418 -0.695603 0
M  V30 6104 C 605.506 -1.42988 -1.79129 0
M  V30 6105 C 606.506 -0.320514 -1.57573 0
M  V30 6106 O 607.696 -0.58039 -1.64247 0
M  V30 6107 C 604.828 -1.24122 -3.175 0
M  V30 6108 H 606.021 -2.40526 -1.7913 0
M  V30 6109 H 603.574 -1.2756 -0.903225 0
M  V30 6110 H 604.309 -0.274253 -3.23138 0
M  V30 6111 H 604.094 -2.045 -3.34547 0
M  V30 6112 H 605.584 -1.28056 -3.97481 0
M  V30 6113 N 606.021 0.929856 -1.27246 0
M  V30 6114 C 607.246 1.71674 -1.16374 0
M  V30 6115 C 607.671 1.86064 0.276024 0
M  V30 6116 O 607.029 1.3591 1.19992 0
M  V30 6117 C 607.077 3.09526 -1.85003 0
M  V30 6118 O 606.181 3.96142 -1.14653 0
M  V30 6119 H 605.522 0.52629 -0.404863 0
M  V30 6120 H 608.052 1.16381 -1.68276 0
M  V30 6121 H 608.062 3.59852 -1.92276 0
M  V30 6122 H 606.737 2.98369 -2.89739 0
M  V30 6123 H 605.314 3.54584 -1.15433 0
M  V30 6124 N 607.499 1.09233 1.13605 0
M  V30 6125 C 608.431 0.687794 2.18637 0
M  V30 6126 C 609.444 -0.26936 1.60556 0
M  V30 6127 O 610.633 -0.0557162 1.78413 0
M  V30 6128 C 607.733 -0.00751901 3.38899 0
M  V30 6129 C 606.906 0.97067 4.26494 0
M  V30 6130 C 605.965 0.309129 5.25291 0
M  V30 6131 O 604.991 0.956149 5.61112 0
M  V30 6132 N 606.193 -0.937555 5.72879 0
M  V30 6133 H 608.958 1.59141 2.53957 0
M  V30 6134 H 606.519 0.979515 1.28907 0
M  V30 6135 H 608.511 -0.461238 4.02063 0
M  V30 6136 H 607.081 -0.813353 3.01833 0
M  V30 6137 H 606.301 1.603 3.60135 0
M  V30 6138 H 607.589 1.63323 4.81875 0
M  V30 6139 H 606.987 -1.48281 5.4592 0
M  V30 6140 H 605.544 -1.33463 6.3799 0
M  V30 6141 N 608.977 -1.30795 0.87923 0
M  V30 6142 C 610.207 -2.00237 0.50881 0
M  V30 6143 C 610.615 -1.66115 -0.905682 0
M  V30 6144 O 609.958 -0.89138 -1.60624 0
M  V30 6145 C 610.02 -3.54508 0.597003 0
M  V30 6146 C 609.684 -4.12131 1.97477 0
M  V30 6147 C 610.681 -4.28552 2.94346 0
M  V30 6148 C 608.366 -4.47644 2.2786 0
M  V30 6149 C 610.36 -4.79689 4.19735 0
M  V30 6150 C 608.047 -4.98481 3.53496 0
M  V30 6151 C 609.045 -5.14456 4.49248 0
M  V30 6152 O 608.733 -5.64199 5.72656 0
M  V30 6153 H 608.465 -0.647026 0.195788 0
M  V30 6154 H 611.019 -1.67785 1.1848 0
M  V30 6155 H 609.249 -3.86461 -0.135945 0
M  V30 6156 H 610.938 -4.05198 0.238684 0
M  V30 6157 H 611.704 -4.01424 2.72183 0
M  V30 6158 H 607.583 -4.34481 1.54102 0
M  V30 6159 H 611.127 -4.92073 4.9448 0
M  V30 6160 H 607.024 -5.25044 3.75498 0
M  V30 6161 H 607.792 -5.82551 5.74957 0
M  V30 6162 N 610.455 -0.639598 -1.44038 0
M  V30 6163 C 611.685 -0.154586 -2.06021 0
M  V30 6164 C 612.093 1.17951 -1.47933 0
M  V30 6165 O 611.436 1.73627 -0.59994 0
M  V30 6166 C 611.498 0.0255459 -3.59491 0
M  V30 6167 C 611.162 -1.2317 -4.40089 0
M  V30 6168 C 612.159 -2.15735 -4.73027 0
M  V30 6169 C 609.844 -1.46949 -4.80324 0
M  V30 6170 C 611.838 -3.30382 -5.45093 0
M  V30 6171 C 609.525 -2.61891 -5.52138 0
M  V30 6172 C 610.523 -3.53433 -5.84443 0
M  V30 6173 O 610.211 -4.6637 -6.54793 0
M  V30 6174 H 609.943 -0.0808543 -0.671147 0
M  V30 6175 H 612.497 -0.876541 -1.85758 0
M  V30 6176 H 610.727 0.802733 -3.78276 0
M  V30 6177 H 612.416 0.466184 -4.03214 0
M  V30 6178 H 613.182 -1.98602 -4.42473 0
M  V30 6179 H 609.061 -0.765815 -4.54595 0
M  V30 6180 H 612.605 -4.01856 -5.70226 0
M  V30 6181 H 608.502 -2.78964 -5.82108 0
M  V30 6182 H 609.27 -4.6546 -6.73267 0
M  V30 6183 N 611.933 1.52934 -0.380664 0
M  V30 6184 C 612.881 2.27727 0.47361 0
M  V30 6185 C 613.875 1.31288 1.0705 0
M  V30 6186 O 615.081 1.4886 1.01197 0
M  V30 6187 H 611.456 0.732189 0.171475 0
M  V30 6188 H 613.427 2.97864 -0.178785 0
M  V30 6189 C 612.176 3.0904 1.59341 0
M  V30 6190 H 611.499 3.831 1.14343 0
M  V30 6191 H 612.939 3.64527 2.16555 0
M  V30 6192 C 611.398 2.20813 2.54447 0
M  V30 6193 O 611.928 1.82907 3.57642 0
M  V30 6194 N 610.134 1.85145 2.23986 0
M  V30 6195 H 609.681 2.16169 1.40103 0
M  V30 6196 H 609.639 1.26402 2.87871 0
M  V30 6197 N 613.412 0.11024 1.57214 0
M  V30 6198 C 614.66 -0.548783 1.94506 0
M  V30 6199 C 614.981 -1.67772 0.99386 0
M  V30 6200 O 614.251 -1.9584 0.0485841 0
M  V30 6201 H 612.831 -0.205715 0.718116 0
M  V30 6202 H 615.493 0.177127 1.94093 0
M  V30 6203 H 614.589 -0.949096 2.97319 0
M  V30 6204 N 614.89 -1.56749 -0.16351 0
M  V30 6205 C 616.139 -1.81626 -0.877211 0
M  V30 6206 C 616.452 -0.688791 -1.83071 0
M  V30 6207 O 617.658 -0.822697 -2.58735 0
M  V30 6208 C 616.114 -3.21858 -1.61045 0
M  V30 6209 C 615.722 -4.42494 -0.700195 0
M  V30 6210 C 617.466 -3.56021 -2.31192 0
M  V30 6211 C 615.373 -5.73748 -1.43412 0
M  V30 6212 H 614.303 -0.67731 -0.331312 0
M  V30 6213 H 616.954 -1.83039 -0.13006 0
M  V30 6214 H 615.336 -3.14784 -2.40264 0
M  V30 6215 H 616.51 -4.60766 0.0555849 0
M  V30 6216 H 614.825 -4.1626 -0.10799 0
M  V30 6217 H 617.422 -4.51333 -2.8671 0
M  V30 6218 H 617.765 -2.81277 -3.06902 0
M  V30 6219 H 618.298 -3.64682 -1.58909 0
M  V30 6220 H 615.037 -6.51543 -0.719186 0
M  V30 6221 H 614.557 -5.5944 -2.16302 0
M  V30 6222 H 616.236 -6.15975 -1.9795 0
M  V30 6223 N 616.368 0.432326 -1.51554 0
M  V30 6224 C 617.645 1.19288 -1.55015 0
M  V30 6225 C 618.025 2.08701 -0.317375 0
M  V30 6226 O 617.373 2.17602 0.697243 0
M  V30 6227 C 617.583 1.99037 -2.86679 0
M  V30 6228 C 618.931 2.55907 -3.38817 0
M  V30 6229 O 619.955 2.09243 -2.88263 0
M  V30 6230 O 618.814 3.41029 -4.27038 0
M  V30 6231 H 615.908 0.543369 -0.623441 0
M  V30 6232 H 618.454 0.440988 -1.6387 0
M  V30 6233 H 617.226 1.33397 -3.6786 0
M  V30 6234 H 616.849 2.81281 -2.8101 0
M  V30 6235 N 617.846 1.41785 0.688094 0
M  V30 6236 C 619.092 1.41753 1.4503 0
M  V30 6237 C 619.425 0.0290745 1.94178 0
M  V30 6238 O 618.7 -0.944456 1.7003 0
M  V30 6239 C 618.983 2.43069 2.65686 0
M  V30 6240 C 618.836 3.91053 2.22256 0
M  V30 6241 C 620.155 2.41543 3.67893 0
M  V30 6242 H 617.274 0.516202 0.526027 0
M  V30 6243 H 619.916 1.73111 0.783105 0
M  V30 6244 H 618.066 2.1646 3.2261 0
M  V30 6245 H 619.738 4.28594 1.70602 0
M  V30 6246 H 617.981 4.05559 1.53963 0
M  V30 6247 H 618.652 4.57501 3.08863 0
M  V30 6248 H 621.128 2.65175 3.20658 0
M  V30 6249 H 620.004 3.14434 4.49914 0
M  V30 6250 H 620.265 1.43666 4.18106 0
M  V30 6251 N 619.324 -0.923095 1.27737 0
M  V30 6252 C 620.274 -2.01061 1.0751 0
M  V30 6253 C 621.258 -1.609 0.00165451 0
M  V30 6254 O 622.45 -1.75618 0.220724 0
M  V30 6255 C 619.579 -3.35467 0.729162 0
M  V30 6256 C 618.665 -3.82059 1.84098 0
M  V30 6257 N 619.056 -4.01115 3.08124 0
M  V30 6258 C 617.354 -4.11135 1.7287 0
M  V30 6259 C 618.055 -4.39989 3.80506 0
M  V30 6260 N 617.031 -4.47721 3.08297 0
M  V30 6261 H 620.833 -2.13832 2.01626 0
M  V30 6262 H 618.347 -1.11027 1.18519 0
M  V30 6263 H 620.344 -4.13049 0.565355 0
M  V30 6264 H 619.004 -3.24056 -0.204334 0
M  V30 6265 H 620.015 -3.87294 3.43836 0
M  V30 6266 H 616.692 -4.08412 0.866352 0
M  V30 6267 H 618.082 -4.62773 4.87125 0
M  V30 6268 N 620.802 -1.09834 -1.13024 0
M  V30 6269 C 621.752 -0.710899 -2.16634 0
M  V30 6270 C 622.736 0.276836 -1.58501 0
M  V30 6271 O 623.928 0.0865457 -1.76788 0
M  V30 6272 C 621.057 -0.137574 -3.43024 0
M  V30 6273 C 620.143 -1.15198 -4.08155 0
M  V30 6274 N 620.534 -2.34054 -4.48388 0
M  V30 6275 C 618.832 -0.991074 -4.34849 0
M  V30 6276 C 619.533 -2.98616 -4.99203 0
M  V30 6277 N 618.509 -2.26159 -4.94321 0
M  V30 6278 H 622.311 -1.61576 -2.455 0
M  V30 6279 H 619.825 -0.975158 -1.29863 0
M  V30 6280 H 621.822 0.158031 -4.166 0
M  V30 6281 H 620.482 0.762088 -3.1563 0
M  V30 6282 H 621.493 -2.7162 -4.40957 0
M  V30 6283 H 618.17 -0.146448 -4.17243 0
M  V30 6284 H 619.56 -3.99683 -5.40096 0
M  V30 6285 N 622.28 1.30327 -0.886154 0
M  V30 6286 C 623.505 2.0079 -0.519425 0
M  V30 6287 C 623.93 1.65979 0.885013 0
M  V30 6288 O 623.288 0.877043 1.58675 0
M  V30 6289 C 623.336 3.53686 -0.702758 0
M  V30 6290 O 622.44 4.11637 0.250828 0
M  V30 6291 H 621.781 0.63171 -0.204544 0
M  V30 6292 H 624.311 1.66145 -1.19402 0
M  V30 6293 H 624.321 4.03531 -0.602207 0
M  V30 6294 H 622.996 3.78361 -1.72673 0
M  V30 6295 H 621.573 3.72755 0.103873 0
M  V30 6296 N 623.758 0.647228 1.43697 0
M  V30 6297 C 624.983 0.164083 2.0675 0
M  V30 6298 C 625.408 -1.15892 1.48158 0
M  V30 6299 O 624.766 -1.71459 0.589194 0
M  V30 6300 C 624.814 0.0800368 3.60511 0
M  V30 6301 O 623.918 -0.959453 4.01084 0
M  V30 6302 H 623.259 0.0921288 0.657578 0
M  V30 6303 H 625.789 0.88846 1.84303 0
M  V30 6304 H 625.799 -0.105263 4.07864 0
M  V30 6305 H 624.474 1.04586 4.02535 0
M  V30 6306 H 623.051 -0.747425 3.65333 0
M  V30 6307 N 625.236 -1.5273 0.388769 0
M  V30 6308 C 626.484 -2.01174 -0.193208 0
M  V30 6309 C 626.805 -1.27705 -1.47365 0
M  V30 6310 O 626.075 -0.396966 -1.91836 0
M  V30 6311 H 624.655 -0.743287 -0.0743871 0
M  V30 6312 H 627.317 -1.87826 0.520336 0
M  V30 6313 H 626.413 -3.09477 -0.403803 0
M  V30 6314 N 626.714 -0.118576 -1.57153 0
M  V30 6315 C 627.96 0.540326 -1.95469 0
M  V30 6316 C 628.293 1.66356 -1.00196 0
M  V30 6317 O 627.568 1.94461 -0.039104 0
M  V30 6318 C 627.851 1.07342 -3.43729 0
M  V30 6319 C 627.704 -0.0463732 -4.49776 0
M  V30 6320 C 629.023 1.96442 -3.93826 0
M  V30 6321 H 626.142 0.19494 -0.710751 0
M  V30 6322 H 628.784 -0.19405 -1.89006 0
M  V30 6323 H 626.934 1.69925 -3.49368 0
M  V30 6324 H 628.606 -0.681648 -4.56236 0
M  V30 6325 H 626.849 -0.709574 -4.27957 0
M  V30 6326 H 627.52 0.367856 -5.50773 0
M  V30 6327 H 629.996 1.43731 -3.90488 0
M  V30 6328 H 628.872 2.3066 -4.98084 0
M  V30 6329 H 629.133 2.89077 -3.34495 0
M  V30 6330 N 628.193 1.56834 0.155195 0
M  V30 6331 C 629.423 1.86778 0.883044 0
M  V30 6332 C 629.831 0.703824 1.75622 0
M  V30 6333 O 629.174 -0.33581 1.80605 0
M  V30 6334 C 629.236 3.1133 1.79761 0
M  V30 6335 C 628.9 4.43504 1.10242 0
M  V30 6336 C 629.897 5.17859 0.460204 0
M  V30 6337 C 627.582 4.90233 1.09437 0
M  V30 6338 C 629.576 6.37144 -0.180782 0
M  V30 6339 C 627.263 6.09444 0.449569 0
M  V30 6340 C 628.261 6.82744 -0.186888 0
M  V30 6341 O 627.949 7.99692 -0.821486 0
M  V30 6342 H 627.681 0.62352 0.261149 0
M  V30 6343 H 630.235 2.04813 0.155204 0
M  V30 6344 H 628.465 2.89282 2.56618 0
M  V30 6345 H 630.154 3.27587 2.39669 0
M  V30 6346 H 630.92 4.8283 0.458289 0
M  V30 6347 H 626.799 4.33109 1.57917 0
M  V30 6348 H 630.343 6.94296 -0.678154 0
M  V30 6349 H 626.24 6.43936 0.449123 0
M  V30 6350 H 627.008 8.15306 -0.722337 0
M  V30 6351 N 629.671 -0.424282 1.51781 0
M  V30 6352 C 630.619 -1.53649 1.74628 0
M  V30 6353 C 631.613 -1.57923 0.612922 0
M  V30 6354 O 632.819 -1.61511 0.794618 0
M  V30 6355 H 629.194 -0.510706 0.551981 0
M  V30 6356 H 631.165 -1.31558 2.67834 0
M  V30 6357 C 629.914 -2.91177 1.9003 0
M  V30 6358 H 629.237 -2.88625 2.76651 0
M  V30 6359 H 630.677 -3.6833 2.10021 0
M  V30 6360 C 629.136 -3.30303 0.663435 0
M  V30 6361 O 629.666 -4.01315 -0.175812 0
M  V30 6362 N 627.872 -2.86201 0.503723 0
M  V30 6363 H 627.419 -2.28583 1.18776 0
M  V30 6364 H 627.377 -3.12741 -0.322575 0
M  V30 6365 N 631.149 -1.42148 -0.680565 0
M  V30 6366 C 632.565 -1.24947 -0.992995 0
M  V30 6367 C 632.765 -0.149527 -2.00944 0
M  V30 6368 O 631.821 0.481145 -2.47873 0
M  V30 6369 C 633.134 -2.60426 -1.5033 0
M  V30 6370 C 634.682 -2.67733 -1.62137 0
M  V30 6371 C 635.157 -4.03564 -2.16565 0
M  V30 6372 N 636.648 -4.05488 -2.23905 0
M  V30 6373 C 637.383 -5.07401 -2.67081 0
M  V30 6374 N 636.879 -6.19698 -3.09751 0
M  V30 6375 N 638.672 -4.94758 -2.66778 0
M  V30 6376 H 630.823 -2.12399 -0.0074788 0
M  V30 6377 H 633.086 -0.94571 -0.0658529 0
M  V30 6378 H 632.792 -3.41743 -0.830947 0
M  V30 6379 H 632.666 -2.83949 -2.483 0
M  V30 6380 H 635.053 -1.86765 -2.2848 0
M  V30 6381 H 635.134 -2.48004 -0.626713 0
M  V30 6382 H 634.778 -4.84987 -1.50833 0
M  V30 6383 H 634.708 -4.20641 -3.1681 0
M  V30 6384 H 637.199 -3.24415 -1.93812 0
M  V30 6385 H 637.512 -6.93318 -3.41365 0
M  V30 6386 H 635.857 -6.23212 -3.07623 0
M  V30 6387 H 639.048 -4.06105 -2.32801 0
M  V30 6388 H 639.221 -5.74317 -3.00107 0
M  V30 6389 N 632.627 0.916307 -1.28225 0
M  V30 6390 C 633.59 1.99996 -1.11957 0
M  V30 6391 C 634.59 1.60688 -0.0600152 0
M  V30 6392 O 635.78 1.71499 -0.30558 0
M  V30 6393 C 632.912 3.33458 -0.708411 0
M  V30 6394 H 634.105 2.15858 -2.08196 0
M  V30 6395 H 631.658 1.09863 -1.11175 0
M  V30 6396 H 632.393 3.23297 0.254859 0
M  V30 6397 H 632.178 3.63349 -1.47377 0
M  V30 6398 H 633.668 4.13014 -0.617164 0
M  V30 6399 N 634.105 1.10431 1.1244 0
M  V30 6400 C 635.352 0.846717 1.83948 0
M  V30 6401 C 635.68 -0.627709 1.84093 0
M  V30 6402 O 634.935 -1.47876 1.28184 0
M  V30 6403 C 635.234 1.34022 3.3132 0
M  V30 6404 C 634.9 2.82606 3.51347 0
M  V30 6405 C 633.562 3.23182 3.56521 0
M  V30 6406 C 635.914 3.78356 3.58464 0
M  V30 6407 C 633.242 4.58258 3.66356 0
M  V30 6408 C 635.594 5.13234 3.69829 0
M  V30 6409 C 634.258 5.53384 3.73259 0
M  V30 6410 H 633.528 0.309836 0.673114 0
M  V30 6411 H 636.175 1.38091 1.32677 0
M  V30 6412 H 634.48 0.726047 3.85014 0
M  V30 6413 H 636.177 1.11739 3.85118 0
M  V30 6414 H 632.767 2.50212 3.47983 0
M  V30 6415 H 636.951 3.48115 3.53737 0
M  V30 6416 H 632.207 4.88787 3.67284 0
M  V30 6417 H 636.381 5.87272 3.74279 0
M  V30 6418 H 634.008 6.58045 3.80633 0
M  V30 6419 N 635.583 -1.29855 0.893053 0
M  V30 6420 C 636.813 -1.99686 0.530019 0
M  V30 6421 C 637.221 -1.67066 -0.888012 0
M  V30 6422 O 636.564 -0.908366 -1.5967 0
M  V30 6423 C 636.626 -3.53855 0.63457 0
M  V30 6424 C 636.29 -4.10013 2.01837 0
M  V30 6425 C 637.287 -4.25406 2.98874 0
M  V30 6426 C 634.972 -4.45202 2.32595 0
M  V30 6427 C 636.966 -4.7521 4.24799 0
M  V30 6428 C 634.653 -4.94704 3.58763 0
M  V30 6429 C 635.651 -5.09662 4.5468 0
M  V30 6430 O 635.339 -5.58093 5.78608 0
M  V30 6431 H 635.071 -0.644913 0.20264 0
M  V30 6432 H 637.625 -1.66518 1.20253 0
M  V30 6433 H 635.855 -3.86583 -0.0949477 0
M  V30 6434 H 637.544 -4.04922 0.281648 0
M  V30 6435 H 638.31 -3.98515 2.76425 0
M  V30 6436 H 634.189 -4.32822 1.58701 0
M  V30 6437 H 637.733 -4.86801 4.99671 0
M  V30 6438 H 633.63 -5.21032 3.81046 0
M  V30 6439 H 634.398 -5.7642 5.81104 0
M  V30 6440 N 637.061 -0.65484 -1.43351 0
M  V30 6441 C 637.991 0.0221809 -2.33489 0
M  V30 6442 C 638.972 0.810272 -1.49561 0
M  V30 6443 O 640.157 0.771426 -1.78221 0
M  V30 6444 C 637.287 0.988117 -3.32947 0
M  V30 6445 C 636.241 0.310026 -4.26876 0
M  V30 6446 C 635.567 1.38752 -5.16384 0
M  V30 6447 C 636.867 -0.798589 -5.16159 0
M  V30 6448 H 638.561 -0.730571 -2.9035 0
M  V30 6449 H 636.107 -0.352773 -1.39612 0
M  V30 6450 H 638.06 1.47067 -3.94904 0
M  V30 6451 H 636.784 1.77205 -2.74346 0
M  V30 6452 H 635.443 -0.152097 -3.66284 0
M  V30 6453 H 635.091 2.16293 -4.54121 0
M  V30 6454 H 634.791 0.939051 -5.80048 0
M  V30 6455 H 636.315 1.87141 -5.81215 0
M  V30 6456 H 637.729 -0.398126 -5.71916 0
M  V30 6457 H 636.126 -1.17163 -5.88552 0
M  V30 6458 H 637.196 -1.65588 -4.55751 0
M  V30 6459 N 638.539 1.52521 -0.396863 0
M  V30 6460 C 639.469 2.29582 0.425941 0
M  V30 6461 C 640.45 1.33281 1.05689 0
M  V30 6462 O 641.635 1.62181 1.06823 0
M  V30 6463 C 638.765 3.10821 1.54943 0
M  V30 6464 C 637.719 4.15069 1.04413 0
M  V30 6465 C 637.045 4.84578 2.26028 0
M  V30 6466 C 638.345 5.22191 0.106767 0
M  V30 6467 H 640.039 2.98612 -0.217045 0
M  V30 6468 H 637.585 1.43611 -0.105826 0
M  V30 6469 H 639.538 3.63492 2.13193 0
M  V30 6470 H 638.262 2.39538 2.22011 0
M  V30 6471 H 636.921 3.63389 0.484118 0
M  V30 6472 H 636.569 4.09835 2.91623 0
M  V30 6473 H 636.269 5.55043 1.92876 0
M  V30 6474 H 637.793 5.40056 2.84906 0
M  V30 6475 H 639.207 5.70176 0.597685 0
M  V30 6476 H 637.604 5.99947 -0.135352 0
M  V30 6477 H 638.674 4.77531 -0.842134 0
M  V30 6478 N 640.017 0.126909 1.57088 0
M  V30 6479 C 640.98 -0.806097 2.14557 0
M  V30 6480 C 641.98 -1.18918 1.08236 0
M  V30 6481 O 643.17 -1.11339 1.33975 0
M  V30 6482 C 640.302 -2.09116 2.69227 0
M  V30 6483 H 641.495 -0.306522 2.98329 0
M  V30 6484 H 639.048 -0.122393 1.5582 0
M  V30 6485 H 639.783 -2.63486 1.89065 0
M  V30 6486 H 639.568 -1.82588 3.46993 0
M  V30 6487 H 641.058 -2.75794 3.13572 0
M  V30 6488 N 641.495 -1.56914 -0.146875 0
M  V30 6489 C 642.443 -1.99224 -1.20053 0
M  V30 6490 C 643.437 -0.884661 -1.44465 0
M  V30 6491 O 644.643 -1.06984 -1.44756 0
M  V30 6492 H 641.018 -0.634191 -0.404112 0
M  V30 6493 H 642.989 -2.86998 -0.816987 0
M  V30 6494 C 641.738 -2.38899 -2.52632 0
M  V30 6495 H 641.061 -3.23677 -2.34677 0
M  V30 6496 H 642.501 -2.72326 -3.24984 0
M  V30 6497 C 640.96 -1.2417 -3.13183 0
M  V30 6498 O 641.49 -0.542503 -3.9802 0
M  V30 6499 N 639.696 -1.00592 -2.72635 0
M  V30 6500 H 639.243 -1.57627 -2.03744 0
M  V30 6501 H 639.201 -0.240174 -3.13481 0
M  V30 6502 N 642.974 0.416227 -1.52004 0
M  V30 6503 C 644.199 1.19029 -1.69843 0
M  V30 6504 C 644.624 1.83708 -0.404103 0
M  V30 6505 O 643.982 1.69711 0.637787 0
M  V30 6506 C 644.03 2.23439 -2.83032 0
M  V30 6507 O 643.134 3.29419 -2.48106 0
M  V30 6508 H 642.475 0.347785 -0.565634 0
M  V30 6509 H 645.005 0.488871 -1.98674 0
M  V30 6510 H 645.015 2.67884 -3.07737 0
M  V30 6511 H 643.69 1.75745 -3.76944 0
M  V30 6512 H 642.267 2.90303 -2.34048 0
M  V30 6513 N 644.452 1.42507 0.673017 0
M  V30 6514 C 645.863 1.38347 1.25367 0
M  V30 6515 C 646.214 0.0776327 1.96046 0
M  V30 6516 O 645.339 -0.823571 2.00116 0
M  V30 6517 C 645.934 2.506 2.28002 0
M  V30 6518 C 644.493 2.49767 2.81591 0
M  V30 6519 C 643.64 2.293 1.55938 0
M  V30 6520 H 646.591 1.51695 0.466288 0
M  V30 6521 H 646.612 2.20953 3.09774 0
M  V30 6522 H 646.124 3.45627 1.76532 0
M  V30 6523 H 644.225 1.58563 3.37177 0
M  V30 6524 H 644.338 3.46867 3.30485 0
M  V30 6525 H 642.702 1.77594 1.82572 0
M  V30 6526 H 643.485 3.26385 1.06431 0
M  V30 6527 N 645.93 -0.909495 1.28709 0
M  V30 6528 C 647.178 -1.65577 1.15882 0
M  V30 6529 C 647.499 -1.928 -0.292108 0
M  V30 6530 O 646.769 -1.54716 -1.20166 0
M  V30 6531 H 645.349 -0.613714 0.425869 0
M  V30 6532 H 648.011 -1.09108 1.61498 0
M  V30 6533 H 647.107 -2.61634 1.70159 0
M  V30 6534 N 647.408 -1.11026 -1.11852 0
M  V30 6535 C 648.654 -0.867633 -1.83967 0
M  V30 6536 C 649.009 0.600309 -1.82795 0
M  V30 6537 O 648.302 1.43731 -1.26696 0
M  V30 6538 C 648.496 -1.35777 -3.30604 0
M  V30 6539 C 648.325 -2.87183 -3.46058 0
M  V30 6540 C 647.095 -3.55256 -3.59334 0
M  V30 6541 C 649.293 -3.85258 -3.40706 0
M  V30 6542 N 647.275 -4.94923 -3.63215 0
M  V30 6543 C 648.646 -5.1097 -3.51155 0
M  V30 6544 C 650.701 -3.77879 -3.2421 0
M  V30 6545 C 649.404 -6.30171 -3.46809 0
M  V30 6546 C 651.43 -4.96586 -3.2118 0
M  V30 6547 C 650.792 -6.21149 -3.32196 0
M  V30 6548 H 646.891 -0.370574 -0.688621 0
M  V30 6549 H 649.475 -1.41379 -1.33865 0
M  V30 6550 H 647.646 -0.83885 -3.79233 0
M  V30 6551 H 649.378 -1.05874 -3.90606 0
M  V30 6552 H 646.133 -3.05714 -3.61713 0
M  V30 6553 H 646.557 -5.67726 -3.68804 0
M  V30 6554 H 651.199 -2.82485 -3.14582 0
M  V30 6555 H 648.917 -7.25847 -3.55206 0
M  V30 6556 H 652.503 -4.92591 -3.09589 0
M  V30 6557 H 651.383 -7.11463 -3.29834 0
M  V30 6558 N 648.886 1.2938 -0.899927 0
M  V30 6559 C 650.163 1.9046 -0.445443 0
M  V30 6560 C 650.543 1.81683 1.07492 0
M  V30 6561 O 649.891 1.24371 1.91688 0
M  V30 6562 C 650.101 3.35529 -0.960279 0
M  V30 6563 C 651.449 4.12556 -1.00412 0
M  V30 6564 O 652.473 3.44434 -0.907965 0
M  V30 6565 O 651.332 5.34294 -1.14857 0
M  V30 6566 H 648.426 0.815253 -0.138893 0
M  V30 6567 H 650.972 1.37844 -0.989808 0
M  V30 6568 H 649.744 3.36074 -2.00425 0
M  V30 6569 H 649.367 3.95624 -0.395939 0
M  V30 6570 N 650.364 0.662433 1.43002 0
M  V30 6571 C 651.592 0.187615 2.06048 0
M  V30 6572 C 652.007 -1.15039 1.49705 0
M  V30 6573 O 651.364 -1.71209 0.631956 0
M  V30 6574 C 651.415 0.100498 3.6136 0
M  V30 6575 O 651.136 1.38562 4.15611 0
M  V30 6576 C 652.637 -0.399298 4.41498 0
M  V30 6577 H 649.857 0.0941675 0.664359 0
M  V30 6578 H 652.401 0.905681 1.83351 0
M  V30 6579 H 650.556 -0.568181 3.83211 0
M  V30 6580 H 650.97 1.25084 5.09366 0
M  V30 6581 H 652.444 -0.409187 5.50481 0
M  V30 6582 H 652.921 -1.43232 4.15188 0
M  V30 6583 H 653.527 0.23721 4.24638 0
M  V30 6584 N 651.842 -1.52309 0.404946 0
M  V30 6585 C 653.258 -1.59503 0.0556255 0
M  V30 6586 C 653.458 -1.41805 -1.43156 0
M  V30 6587 O 652.514 -1.2429 -2.19792 0
M  V30 6588 C 653.827 -2.95687 0.546801 0
M  V30 6589 C 655.375 -3.08909 0.504413 0
M  V30 6590 C 655.85 -4.47566 0.97203 0
M  V30 6591 N 657.341 -4.53795 0.928679 0
M  V30 6592 C 658.076 -5.59346 1.26174 0
M  V30 6593 N 657.572 -6.72469 1.66604 0
M  V30 6594 N 659.365 -5.49532 1.18198 0
M  V30 6595 H 651.516 -1.6206 1.37296 0
M  V30 6596 H 653.779 -0.762161 0.563751 0
M  V30 6597 H 653.485 -3.13905 1.58609 0
M  V30 6598 H 653.359 -3.77172 -0.0457905 0
M  V30 6599 H 655.746 -2.90378 -0.525819 0
M  V30 6600 H 655.827 -2.2934 1.13301 0
M  V30 6601 H 655.471 -4.6684 2.00057 0
M  V30 6602 H 655.401 -5.25625 0.320292 0
M  V30 6603 H 657.892 -3.72588 0.631369 0
M  V30 6604 H 658.205 -7.48993 1.9034 0
M  V30 6605 H 656.55 -6.73761 1.70504 0
M  V30 6606 H 659.741 -4.60038 0.865011 0
M  V30 6607 H 659.914 -6.31687 1.44485 0
M  V30 6608 N 653.32 -0.135238 -1.57019 0
M  V30 6609 C 654.267 0.808908 -2.1616 0
M  V30 6610 C 655.237 1.25234 -1.09113 0
M  V30 6611 O 656.422 1.32697 -1.37099 0
M  V30 6612 C 653.562 2.04729 -2.77813 0
M  V30 6613 C 652.675 1.65074 -3.99218 0
M  V30 6614 C 651.81 2.84002 -4.48906 0
M  V30 6615 C 650.849 2.40663 -5.62803 0
M  V30 6616 N 649.986 3.5256 -6.07162 0
M  V30 6617 H 654.826 0.297751 -2.96509 0
M  V30 6618 H 652.363 0.135264 -1.46477 0
M  V30 6619 H 654.321 2.7731 -3.11697 0
M  V30 6620 H 652.951 2.53275 -2.00128 0
M  V30 6621 H 652.003 0.823029 -3.7139 0
M  V30 6622 H 653.315 1.29236 -4.81767 0
M  V30 6623 H 652.469 3.64788 -4.84783 0
M  V30 6624 H 651.208 3.23076 -3.65339 0
M  V30 6625 H 650.213 1.58314 -5.26514 0
M  V30 6626 H 651.438 2.02687 -6.48147 0
M  V30 6627 H 649.384 3.91278 -5.26534 0
M  V30 6628 H 649.301 3.20699 -6.84608 0
M  V30 6629 H 650.569 4.33738 -6.47682 0
M  V30 6630 N 654.798 1.5699 0.138552 0
M  V30 6631 C 655.761 1.97984 1.15478 0
M  V30 6632 C 656.761 0.867416 1.35398 0
M  V30 6633 O 657.951 1.13387 1.32246 0
M  V30 6634 C 655.083 2.3031 2.51337 0
M  V30 6635 H 656.276 2.88953 0.802896 0
M  V30 6636 H 653.829 1.51555 0.382189 0
M  V30 6637 H 654.564 1.42159 2.91481 0
M  V30 6638 H 654.349 3.11425 2.38237 0
M  V30 6639 H 655.839 2.62834 3.24512 0
M  V30 6640 N 656.276 -0.40816 1.52223 0
M  V30 6641 C 657.523 -1.15502 1.66329 0
M  V30 6642 C 657.851 -1.90474 0.393701 0
M  V30 6643 O 657.106 -1.85507 -0.623356 0
M  V30 6644 C 657.405 -2.17422 2.83659 0
M  V30 6645 C 657.071 -1.5925 4.21841 0
M  V30 6646 C 655.733 -1.4311 4.59427 0
M  V30 6647 C 658.085 -1.16776 5.0795 0
M  V30 6648 C 655.413 -0.830148 5.80797 0
M  V30 6649 C 657.765 -0.580988 6.29926 0
M  V30 6650 C 656.429 -0.406729 6.6626 0
M  V30 6651 H 655.699 -0.422653 0.608642 0
M  V30 6652 H 658.346 -0.442114 1.86327 0
M  V30 6653 H 656.651 -2.94861 2.58001 0
M  V30 6654 H 658.348 -2.75084 2.9177 0
M  V30 6655 H 654.938 -1.72796 3.92224 0
M  V30 6656 H 659.122 -1.28055 4.79495 0
M  V30 6657 H 654.378 -0.68316 6.07571 0
M  V30 6658 H 658.552 -0.243488 6.95974 0
M  V30 6659 H 656.179 0.0610366 7.60175 0
M  V30 6660 N 657.755 -1.42862 -0.66545 0
M  V30 6661 C 658.665 -1.49491 -1.80803 0
M  V30 6662 C 659.681 -0.382914 -1.69734 0
M  V30 6663 O 660.857 -0.635223 -1.9112 0
M  V30 6664 C 657.922 -1.40383 -3.17007 0
M  V30 6665 C 656.983 -2.62152 -3.39963 0
M  V30 6666 C 656.216 -2.53469 -4.69669 0
M  V30 6667 O 656.439 -1.57568 -5.48205 0
M  V30 6668 O 655.373 -3.43763 -4.94075 0
M  V30 6669 H 659.199 -2.45949 -1.78165 0
M  V30 6670 H 656.784 -1.24728 -0.822387 0
M  V30 6671 H 658.666 -1.377 -3.98267 0
M  V30 6672 H 657.341 -0.470546 -3.20262 0
M  V30 6673 H 656.248 -2.70409 -2.58515 0
M  V30 6674 H 657.581 -3.54411 -3.41546 0
M  V30 6675 N 659.233 0.902656 -1.29189 0
M  V30 6676 C 660.479 1.65532 -1.17163 0
M  V30 6677 C 660.812 1.92216 0.276879 0
M  V30 6678 O 660.087 1.53048 1.20027 0
M  V30 6679 C 660.37 3.00629 -1.98228 0
M  V30 6680 C 660.223 2.81029 -3.51202 0
M  V30 6681 C 661.542 4.01321 -1.80635 0
M  V30 6682 H 658.661 0.60071 -0.426985 0
M  V30 6683 H 661.303 1.04578 -1.5863 0
M  V30 6684 H 659.453 3.52656 -1.62991 0
M  V30 6685 H 661.125 2.35927 -3.96404 0
M  V30 6686 H 659.368 2.1587 -3.76275 0
M  V30 6687 H 660.039 3.77014 -4.03192 0
M  V30 6688 H 662.515 3.58394 -2.11406 0
M  V30 6689 H 661.391 4.93792 -2.3971 0
M  V30 6690 H 661.652 4.35505 -0.760754 0
M  V30 6691 N 660.711 1.11618 1.11262 0
M  V30 6692 C 661.958 0.86618 1.8304 0
M  V30 6693 C 662.286 -0.608149 1.84748 0
M  V30 6694 O 661.541 -1.46508 1.29745 0
M  V30 6695 C 661.84 1.37529 3.2988 0
M  V30 6696 C 661.506 2.86317 3.4833 0
M  V30 6697 C 660.168 3.26945 3.53073 0
M  V30 6698 C 662.52 3.82136 3.54431 0
M  V30 6699 C 659.848 4.62117 3.61475 0
M  V30 6700 C 662.2 5.17128 3.64365 0
M  V30 6701 C 660.864 5.57312 3.67369 0
M  V30 6702 H 660.134 0.316958 0.66979 0
M  V30 6703 H 662.781 1.3949 1.31205 0
M  V30 6704 H 661.086 0.766842 3.84222 0
M  V30 6705 H 662.783 1.15817 3.83911 0
M  V30 6706 H 659.373 2.53889 3.45309 0
M  V30 6707 H 663.557 3.51847 3.50025 0
M  V30 6708 H 658.813 4.92655 3.62079 0
M  V30 6709 H 662.987 5.91208 3.68029 0
M  V30 6710 H 660.614 6.62045 3.73632 0
M  V30 6711 N 662.189 -1.289 0.906776 0
M  V30 6712 C 663.435 -1.95558 0.53712 0
M  V30 6713 C 663.768 -1.71262 -0.915582 0
M  V30 6714 O 663.043 -1.02961 -1.65013 0
M  V30 6715 C 663.326 -3.50198 0.838645 0
M  V30 6716 C 663.179 -3.83923 2.34357 0
M  V30 6717 C 664.498 -4.38861 0.329988 0
M  V30 6718 H 661.617 -0.710289 0.196617 0
M  V30 6719 H 664.259 -1.52392 1.13475 0
M  V30 6720 H 662.409 -3.87096 0.330024 0
M  V30 6721 H 664.081 -3.56933 2.92227 0
M  V30 6722 H 662.324 -3.31215 2.80141 0
M  V30 6723 H 662.995 -4.91883 2.5051 0
M  V30 6724 H 665.471 -4.08996 0.765609 0
M  V30 6725 H 664.347 -5.45931 0.570105 0
M  V30 6726 H 664.608 -4.35352 -0.769511 0
M  V30 6727 N 663.667 -0.670007 -1.42649 0
M  V30 6728 C 664.944 -0.119451 -1.95235 0
M  V30 6729 C 665.324 1.36461 -1.61064 0
M  V30 6730 O 664.672 2.09843 -0.904329 0
M  V30 6731 C 664.882 -0.383498 -3.46887 0
M  V30 6732 C 666.23 -0.297431 -4.23557 0
M  V30 6733 O 667.254 -0.31698 -3.54787 0
M  V30 6734 O 666.113 -0.235507 -5.45992 0
M  V30 6735 H 663.207 -8.85474e-05 -0.827 0
M  V30 6736 H 665.753 -0.744406 -1.52501 0
M  V30 6737 H 664.525 -1.41174 -3.64946 0
M  V30 6738 H 664.148 0.273702 -3.96657 0
M  V30 6739 N 665.145 1.52092 -0.413018 0
M  V30 6740 C 666.108 2.25706 0.398687 0
M  V30 6741 C 667.108 1.28221 0.970368 0
M  V30 6742 O 668.298 1.52131 0.848635 0
M  V30 6743 C 665.43 3.03029 1.5616 0
M  V30 6744 H 666.623 2.98888 -0.246131 0
M  V30 6745 H 664.176 1.5542 -0.165622 0
M  V30 6746 H 664.911 2.34205 2.24317 0
M  V30 6747 H 664.696 3.74606 1.15812 0
M  V30 6748 H 666.186 3.58857 2.13569 0
M  V30 6749 N 666.623 0.143563 1.56945 0
M  V30 6750 C 667.571 -0.814556 2.17871 0
M  V30 6751 C 668.565 -1.25778 1.13474 0
M  V30 6752 O 669.771 -1.22666 1.31731 0
M  V30 6753 H 666.146 -0.280873 0.697578 0
M  V30 6754 H 668.117 -0.276459 2.97117 0
M  V30 6755 C 666.866 -2.04503 2.81201 0
M  V30 6756 H 666.189 -1.71296 3.61245 0
M  V30 6757 H 667.629 -2.69493 3.27337 0
M  V30 6758 C 666.088 -2.85079 1.79532 0
M  V30 6759 O 666.618 -3.81306 1.26368 0
M  V30 6760 N 664.824 -2.49546 1.48913 0
M  V30 6761 H 664.371 -1.71359 1.92338 0
M  V30 6762 H 664.329 -3.03751 0.811348 0
M  V30 6763 N 668.101 -1.57061 -0.130224 0
M  V30 6764 C 669.517 -1.52103 -0.483413 0
M  V30 6765 C 669.717 -0.854752 -1.82473 0
M  V30 6766 O 668.773 -0.432342 -2.48771 0
M  V30 6767 C 670.086 -2.96872 -0.47825 0
M  V30 6768 C 671.634 -3.07902 -0.562592 0
M  V30 6769 C 672.109 -4.54211 -0.587929 0
M  V30 6770 N 673.6 -4.58621 -0.649684 0
M  V30 6771 C 674.335 -5.69227 -0.690551 0
M  V30 6772 N 673.831 -6.89358 -0.689743 0
M  V30 6773 N 675.624 -5.57304 -0.732708 0
M  V30 6774 H 667.775 -1.98764 0.748779 0
M  V30 6775 H 670.038 -0.907248 0.274965 0
M  V30 6776 H 669.744 -3.48944 0.439444 0
M  V30 6777 H 669.618 -3.53716 -1.31013 0
M  V30 6778 H 672.005 -2.5584 -1.47071 0
M  V30 6779 H 672.086 -2.54073 0.296764 0
M  V30 6780 H 671.73 -5.06915 0.316096 0
M  V30 6781 H 671.66 -5.0584 -1.46401 0
M  V30 6782 H 674.151 -3.72146 -0.656927 0
M  V30 6783 H 674.464 -7.69408 -0.723239 0
M  V30 6784 H 672.809 -6.91884 -0.657347 0
M  V30 6785 H 676 -4.62363 -0.730625 0
M  V30 6786 H 676.173 -6.43515 -0.76109 0
M  V30 6787 N 669.579 0.400081 -1.52437 0
M  V30 6788 C 670.809 1.16598 -1.70553 0
M  V30 6789 C 671.217 1.8451 -0.418665 0
M  V30 6790 O 670.56 1.73069 0.615855 0
M  V30 6791 C 670.622 2.26517 -2.7916 0
M  V30 6792 C 670.286 1.78666 -4.20628 0
M  V30 6793 C 671.283 1.26946 -5.04163 0
M  V30 6794 C 668.968 1.85225 -4.66902 0
M  V30 6795 C 670.962 0.824187 -6.32049 0
M  V30 6796 C 668.649 1.40309 -5.94774 0
M  V30 6797 C 669.647 0.889922 -6.77178 0
M  V30 6798 O 669.335 0.447281 -8.02655 0
M  V30 6799 H 669.067 0.356023 -0.574651 0
M  V30 6800 H 671.621 0.475598 -1.99818 0
M  V30 6801 H 669.851 2.98946 -2.45292 0
M  V30 6802 H 671.54 2.88237 -2.85787 0
M  V30 6803 H 672.306 1.21244 -4.69601 0
M  V30 6804 H 668.185 2.24111 -4.02859 0
M  V30 6805 H 671.729 0.422958 -6.96317 0
M  V30 6806 H 667.626 1.45693 -6.28843 0
M  V30 6807 H 668.394 0.569768 -8.16514 0
M  V30 6808 N 671.057 1.43213 0.657864 0
M  V30 6809 C 672.287 1.478 1.44356 0
M  V30 6810 C 672.695 0.0930206 1.88971 0
M  V30 6811 O 672.038 -0.906089 1.59799 0
M  V30 6812 C 672.1 2.35745 2.71412 0
M  V30 6813 C 671.764 3.83359 2.48767 0
M  V30 6814 C 672.761 4.74585 2.12285 0
M  V30 6815 C 670.446 4.27799 2.63235 0
M  V30 6816 C 672.44 6.08247 1.90562 0
M  V30 6817 C 670.127 5.61516 2.41128 0
M  V30 6818 C 671.125 6.51557 2.04847 0
M  V30 6819 O 670.813 7.82802 1.82967 0
M  V30 6820 H 670.545 0.504363 0.450104 0
M  V30 6821 H 673.099 1.88572 0.814241 0
M  V30 6822 H 671.329 1.89852 3.36887 0
M  V30 6823 H 673.018 2.31589 3.33348 0
M  V30 6824 H 673.784 4.41531 2.00687 0
M  V30 6825 H 669.663 3.57993 2.90451 0
M  V30 6826 H 673.207 6.78489 1.62168 0
M  V30 6827 H 669.104 5.94139 2.52327 0
M  V30 6828 H 669.872 7.94332 1.97429 0
M  V30 6829 N 672.536 -0.895792 1.29666 0
M  V30 6830 C 673.782 -1.64921 1.19049 0
M  V30 6831 C 674.137 -1.90707 -0.254678 0
M  V30 6832 O 673.43 -1.5092 -1.18041 0
M  V30 6833 C 673.624 -3.00075 1.94139 0
M  V30 6834 C 673.453 -2.87482 3.4581 0
M  V30 6835 C 672.223 -2.88041 4.15163 0
M  V30 6836 C 674.421 -2.64224 4.41237 0
M  V30 6837 N 672.403 -2.66226 5.5317 0
M  V30 6838 C 673.774 -2.51427 5.66732 0
M  V30 6839 C 675.829 -2.49362 4.30956 0
M  V30 6840 C 674.532 -2.25281 6.83111 0
M  V30 6841 C 676.558 -2.246 5.47091 0
M  V30 6842 C 675.92 -2.12571 6.7156 0
M  V30 6843 H 672.019 -0.608926 0.490646 0
M  V30 6844 H 674.603 -1.05648 1.63544 0
M  V30 6845 H 672.774 -3.574 1.52052 0
M  V30 6846 H 674.506 -3.64544 1.75754 0
M  V30 6847 H 671.261 -2.99471 3.66898 0
M  V30 6848 H 671.685 -2.58361 6.25762 0
M  V30 6849 H 676.327 -2.57403 3.35415 0
M  V30 6850 H 674.045 -2.15978 7.78704 0
M  V30 6851 H 677.631 -2.13939 5.41037 0
M  V30 6852 H 676.511 -1.93676 7.59907 0
M  V30 6853 N 674.014 -1.12206 -1.10668 0
M  V30 6854 C 675.242 -0.898635 -1.86366 0
M  V30 6855 C 675.657 0.551991 -1.80551 0
M  V30 6856 O 675.014 1.38152 -1.19249 0
M  V30 6857 C 675.065 -1.36199 -3.34861 0
M  V30 6858 O 674.786 -2.75576 -3.40573 0
M  V30 6859 C 676.287 -1.17515 -4.2744 0
M  V30 6860 H 673.507 -0.321281 -0.589084 0
M  V30 6861 H 676.051 -1.49142 -1.39918 0
M  V30 6862 H 674.206 -0.81249 -3.78784 0
M  V30 6863 H 674.62 -2.95851 -4.33096 0
M  V30 6864 H 676.094 -1.54827 -5.29842 0
M  V30 6865 H 676.571 -0.115486 -4.39048 0
M  V30 6866 H 677.177 -1.71203 -3.89319 0
M  V30 6867 N 675.492 1.28418 -0.913599 0
M  V30 6868 C 676.455 2.25564 -0.406624 0
M  V30 6869 C 677.455 1.5387 0.466965 0
M  V30 6870 O 678.645 1.72094 0.270042 0
M  V30 6871 C 675.777 3.38339 0.417053 0
M  V30 6872 H 676.97 2.71926 -1.26477 0
M  V30 6873 H 674.523 1.40098 -0.692986 0
M  V30 6874 H 675.258 2.97339 1.29461 0
M  V30 6875 H 675.043 3.91542 -0.209102 0
M  V30 6876 H 676.533 4.10578 0.762602 0
M  V30 6877 N 676.97 0.677563 1.42291 0
M  V30 6878 C 678.198 0.209459 2.05837 0
M  V30 6879 C 678.613 -1.13444 1.50917 0
M  V30 6880 O 677.97 -1.70529 0.65008 0
M  V30 6881 C 678.021 0.138819 3.61233 0
M  V30 6882 O 677.742 1.42962 4.14118 0
M  V30 6883 C 679.243 -0.352449 4.41897 0
M  V30 6884 H 676.463 0.101209 0.663323 0
M  V30 6885 H 679.007 0.925077 1.8238 0
M  V30 6886 H 677.162 -0.527505 3.83792 0
M  V30 6887 H 677.576 1.3048 5.08011 0
M  V30 6888 H 679.05 -0.350778 5.50884 0
M  V30 6889 H 679.527 -1.3882 4.16684 0
M  V30 6890 H 680.133 0.282236 4.24362 0
M  V30 6891 N 678.448 -1.51871 0.421078 0
M  V30 6892 C 679.673 -2.0684 -0.152371 0
M  V30 6893 C 680.098 -1.28802 -1.37083 0
M  V30 6894 O 679.456 -0.321482 -1.78427 0
M  V30 6895 C 679.504 -3.57532 -0.469368 0
M  V30 6896 O 678.608 -3.81818 -1.55848 0
M  V30 6897 H 677.949 -0.663939 -0.00898586 0
M  V30 6898 H 680.479 -1.95674 0.597724 0
M  V30 6899 H 680.489 -4.01515 -0.724553 0
M  V30 6900 H 679.164 -4.13761 0.421276 0
M  V30 6901 H 677.741 -3.49709 -1.29453 0
M  V30 6902 N 679.926 -0.151884 -1.56866 0
M  V30 6903 C 680.874 0.80299 -2.183 0
M  V30 6904 C 681.868 1.25174 -1.14139 0
M  V30 6905 O 683.074 1.21966 -1.3238 0
M  V30 6906 H 679.449 0.277169 -0.699057 0
M  V30 6907 H 681.42 0.260699 -2.97259 0
M  V30 6908 C 680.169 2.03009 -2.82281 0
M  V30 6909 H 679.492 1.69377 -3.62148 0
M  V30 6910 H 680.932 2.67753 -3.28762 0
M  V30 6911 C 679.391 2.84123 -1.81041 0
M  V30 6912 O 679.921 3.8063 -1.28388 0
M  V30 6913 N 678.127 2.48753 -1.50234 0
M  V30 6914 H 677.674 1.70337 -1.93244 0
M  V30 6915 H 677.632 3.03316 -0.827445 0
M  V30 6916 N 681.404 1.57128 0.121893 0
M  V30 6917 C 682.634 1.88609 0.843227 0
M  V30 6918 C 683.042 0.740917 1.74089 0
M  V30 6919 O 682.385 -0.297426 1.81276 0
M  V30 6920 C 682.447 3.15073 1.73117 0
M  V30 6921 C 682.111 4.45742 1.0081 0
M  V30 6922 C 683.108 5.18719 0.350255 0
M  V30 6923 C 680.793 4.92444 0.99014 0
M  V30 6924 C 682.787 6.36617 -0.315889 0
M  V30 6925 C 680.474 6.10261 0.320196 0
M  V30 6926 C 681.472 6.82194 -0.331666 0
M  V30 6927 O 681.16 7.97769 -0.990927 0
M  V30 6928 H 680.892 0.628919 0.247865 0
M  V30 6929 H 683.446 2.05096 0.111725 0
M  V30 6930 H 681.676 2.9466 2.50424 0
M  V30 6931 H 683.365 3.32597 2.32667 0
M  V30 6932 H 684.131 4.83693 0.35577 0
M  V30 6933 H 680.01 4.36361 1.48695 0
M  V30 6934 H 683.554 6.92701 -0.825272 0
M  V30 6935 H 679.451 6.44743 0.312433 0
M  V30 6936 H 680.219 8.13591 -0.895113 0
M  V30 6937 N 682.882 -0.391992 1.52647 0
M  V30 6938 C 683.83 -1.4991 1.77848 0
M  V30 6939 C 684.824 -1.56587 0.646282 0
M  V30 6940 O 686.03 -1.59789 0.828698 0
M  V30 6941 H 682.405 -0.498883 0.56269 0
M  V30 6942 H 684.376 -1.25847 2.70564 0
M  V30 6943 C 683.125 -2.87081 1.96163 0
M  V30 6944 H 682.448 -2.82692 2.82711 0
M  V30 6945 H 683.888 -3.63792 2.17787 0
M  V30 6946 C 682.347 -3.28822 0.733348 0
M  V30 6947 O 682.877 -4.01598 -0.0906481 0
M  V30 6948 N 681.083 -2.85068 0.564317 0
M  V30 6949 H 680.63 -2.26012 1.23598 0
M  V30 6950 H 680.588 -3.13355 -0.256166 0
M  V30 6951 N 684.36 -1.4356 -0.65026 0
M  V30 6952 C 685.585 -1.48995 -1.44275 0
M  V30 6953 C 686.01 -0.109954 -1.87778 0
M  V30 6954 O 685.368 0.896926 -1.57559 0
M  V30 6955 C 685.416 -2.44341 -2.65198 0
M  V30 6956 O 684.52 -1.93172 -3.6436 0
M  V30 6957 H 683.861 -0.503852 -0.432469 0
M  V30 6958 H 686.391 -1.88504 -0.795446 0
M  V30 6959 H 686.401 -2.61743 -3.12977 0
M  V30 6960 H 685.076 -3.44588 -2.32877 0
M  V30 6961 H 683.653 -1.85445 -3.23519 0
M  V30 6962 N 685.838 0.888903 -1.30139 0
M  V30 6963 C 687.086 1.63713 -1.18501 0
M  V30 6964 C 687.407 1.9324 0.261399 0
M  V30 6965 O 686.677 1.56608 1.17689 0
M  V30 6966 H 685.257 0.606861 -0.435579 0
M  V30 6967 H 687.919 1.06525 -1.63213 0
M  V30 6968 H 687.015 2.58894 -1.743 0
M  V30 6969 N 687.317 1.12792 1.10072 0
M  V30 6970 C 688.28 0.802264 2.14701 0
M  V30 6971 C 689.28 -0.18515 1.59731 0
M  V30 6972 O 690.47 0.041109 1.74151 0
M  V30 6973 C 687.602 0.19285 3.40354 0
M  V30 6974 H 688.795 1.72932 2.45019 0
M  V30 6975 H 686.348 0.931662 1.25498 0
M  V30 6976 H 687.083 -0.743748 3.15656 0
M  V30 6977 H 686.868 0.903827 3.81541 0
M  V30 6978 H 688.358 -0.0183704 4.17596 0
M  V30 6979 N 688.795 -1.27931 0.920396 0
M  V30 6980 C 690.035 -1.96459 0.564198 0
M  V30 6981 C 690.399 -1.70802 -0.876967 0
M  V30 6982 O 691.6 -2.32956 -1.34107 0
M  V30 6983 C 689.871 -3.46583 0.872641 0
M  V30 6984 S 691.43 -4.34343 0.623859 0
M  V30 6985 H 688.248 -0.679735 0.208523 0
M  V30 6986 H 690.85 -1.55319 1.18727 0
M  V30 6987 H 689.554 -3.62753 1.91933 0
M  V30 6988 H 689.085 -3.92677 0.238479 0
M  V30 6989 H 691.1 -4.93449 -0.521744 0
M  V30 6990 N 690.273 -0.685099 -1.4193 0
M  V30 6991 C 691.521 -0.21124 -2.00993 0
M  V30 6992 C 691.842 1.18985 -1.54491 0
M  V30 6993 O 691.112 1.8009 -0.771 0
M  V30 6994 H 689.692 -0.0751059 -0.743215 0
M  V30 6995 H 692.354 -0.883915 -1.73704 0
M  V30 6996 H 691.45 -0.220513 -3.1132 0
M  V30 6997 N 691.751 1.51645 -0.429126 0
M  V30 6998 C 692.997 2.02314 0.140286 0
M  V30 6999 C 693.33 1.31314 1.43074 0
M  V30 7000 O 692.605 0.425531 1.89788 0
M  V30 7001 C 692.888 3.5822 0.36749 0
M  V30 7002 C 692.741 4.39846 -0.941039 0
M  V30 7003 C 694.06 4.25055 1.14089 0
M  V30 7004 H 691.179 0.735335 0.0495112 0
M  V30 7005 H 693.821 1.81358 -0.566514 0
M  V30 7006 H 691.971 3.76207 0.969556 0
M  V30 7007 H 693.643 4.33527 -1.57646 0
M  V30 7008 H 691.886 4.05259 -1.54751 0
M  V30 7009 H 692.557 5.47069 -0.73621 0
M  V30 7010 H 695.033 4.11288 0.630986 0
M  V30 7011 H 693.909 5.34038 1.26863 0
M  V30 7012 H 694.17 3.85358 2.16683 0
M  V30 7013 N 693.229 0.160201 1.56784 0
M  V30 7014 C 694.478 -0.487619 1.95717 0
M  V30 7015 C 694.791 -1.65136 1.0483 0
M  V30 7016 O 695.997 -2.36468 1.33398 0
M  V30 7017 C 694.453 -0.91888 3.47972 0
M  V30 7018 C 694.061 0.218655 4.47466 0
M  V30 7019 C 695.805 -1.53575 3.95746 0
M  V30 7020 C 693.712 -0.231614 5.90946 0
M  V30 7021 H 692.642 -0.185939 0.730714 0
M  V30 7022 H 695.293 0.246657 1.81835 0
M  V30 7023 H 693.675 -1.70881 3.57234 0
M  V30 7024 H 694.849 0.995825 4.49911 0
M  V30 7025 H 693.164 0.744767 4.09685 0
M  V30 7026 H 695.761 -1.88448 5.00391 0
M  V30 7027 H 696.104 -2.42959 3.38048 0
M  V30 7028 H 696.637 -0.810467 3.89456 0
M  V30 7029 H 693.376 0.62718 6.52493 0
M  V30 7030 H 692.896 -0.974379 5.91833 0
M  V30 7031 H 694.575 -0.67922 6.43425 0
M  V30 7032 N 694.707 -1.5719 -0.113559 0
M  V30 7033 C 696.123 -1.52607 -0.467253 0
M  V30 7034 C 696.323 -0.874058 -1.81556 0
M  V30 7035 O 695.379 -0.458703 -2.48299 0
M  V30 7036 C 696.692 -2.97363 -0.446736 0
M  V30 7037 C 698.24 -3.08482 -0.529903 0
M  V30 7038 C 698.715 -4.54809 -0.539721 0
M  V30 7039 N 700.206 -4.59284 -0.601005 0
M  V30 7040 C 700.941 -5.69927 -0.630138 0
M  V30 7041 N 700.437 -6.90051 -0.616589 0
M  V30 7042 N 702.23 -5.5805 -0.673558 0
M  V30 7043 H 694.381 -1.97958 0.769819 0
M  V30 7044 H 696.644 -0.90428 0.284572 0
M  V30 7045 H 696.35 -3.48458 0.47643 0
M  V30 7046 H 696.224 -3.55086 -1.27254 0
M  V30 7047 H 698.611 -2.57386 -1.44349 0
M  V30 7048 H 698.692 -2.53744 0.323695 0
M  V30 7049 H 698.336 -5.06552 0.369843 0
M  V30 7050 H 698.266 -5.07364 -1.41028 0
M  V30 7051 H 700.757 -3.72822 -0.617419 0
M  V30 7052 H 701.07 -7.70132 -0.641592 0
M  V30 7053 H 699.415 -6.92543 -0.583927 0
M  V30 7054 H 702.606 -4.63112 -0.681544 0
M  V30 7055 H 702.779 -6.44286 -0.692794 0
M  V30 7056 N 696.185 0.383891 -1.52853 0
M  V30 7057 C 697.41 1.154 -1.7233 0
M  V30 7058 C 697.835 1.82809 -0.44298 0
M  V30 7059 O 697.193 1.71026 0.601645 0
M  V30 7060 C 697.241 2.17386 -2.87708 0
M  V30 7061 O 696.345 3.24082 -2.55038 0
M  V30 7062 H 695.686 0.335709 -0.572883 0
M  V30 7063 H 698.216 0.44662 -1.99666 0
M  V30 7064 H 698.226 2.61296 -3.1335 0
M  V30 7065 H 696.901 1.6771 -3.80587 0
M  V30 7066 H 695.478 2.85273 -2.40153 0
M  V30 7067 N 697.663 1.43903 0.642637 0
M  V30 7068 C 698.626 1.49538 1.73698 0
M  V30 7069 C 699.626 0.378776 1.56275 0
M  V30 7070 O 700.816 0.64095 1.6198 0
M  V30 7071 C 697.948 1.35821 3.12675 0
M  V30 7072 H 699.141 2.47008 1.70079 0
M  V30 7073 H 696.694 1.30824 0.85526 0
M  V30 7074 H 697.429 0.393994 3.21898 0
M  V30 7075 H 697.214 2.16776 3.26727 0
M  V30 7076 H 698.704 1.4272 3.92455 0
M  V30 7077 N 699.141 -0.881989 1.30609 0
M  V30 7078 C 700.073 -1.99375 1.13058 0
M  V30 7079 C 701.086 -1.62636 0.0729879 0
M  V30 7080 O 702.275 -1.75621 0.319301 0
M  V30 7081 C 699.375 -3.31536 0.702651 0
M  V30 7082 C 698.548 -3.96693 1.84265 0
M  V30 7083 C 697.607 -5.07158 1.40277 0
M  V30 7084 O 696.633 -5.28628 2.11048 0
M  V30 7085 N 697.835 -5.79808 0.283449 0
M  V30 7086 H 700.6 -2.14981 2.08814 0
M  V30 7087 H 698.161 -1.05526 1.22784 0
M  V30 7088 H 700.153 -4.02804 0.391331 0
M  V30 7089 H 698.723 -3.12175 -0.162954 0
M  V30 7090 H 697.943 -3.1856 2.32192 0
M  V30 7091 H 699.231 -4.36964 2.60653 0
M  V30 7092 H 698.629 -5.64871 -0.306189 0
M  V30 7093 H 697.186 -6.51792 0.0315985 0
M  V30 7094 N 700.619 -1.13374 -1.09472 0
M  V30 7095 C 701.567 -0.806105 -2.18185 0
M  V30 7096 C 702.561 0.21136 -1.68076 0
M  V30 7097 O 703.767 0.0685558 -1.79869 0
M  V30 7098 H 700.142 -0.242901 -0.71169 0
M  V30 7099 H 702.113 -1.73115 -2.43051 0
M  V30 7100 C 700.862 -0.287928 -3.46506 0
M  V30 7101 H 700.185 -1.06217 -3.85432 0
M  V30 7102 H 701.625 -0.0971054 -4.23889 0
M  V30 7103 C 700.084 0.986256 -3.22141 0
M  V30 7104 O 700.614 2.06217 -3.44728 0
M  V30 7105 N 698.82 0.917153 -2.75747 0
M  V30 7106 H 698.367 0.0414609 -2.57567 0
M  V30 7107 H 698.325 1.77029 -2.59823 0
M  V30 7108 N 702.098 1.27442 -0.927168 0
M  V30 7109 C 703.514 1.46754 -0.627329 0
M  V30 7110 C 703.714 1.83902 0.823549 0
M  V30 7111 O 702.77 1.95215 1.60148 0
M  V30 7112 C 704.083 2.56045 -1.57674 0
M  V30 7113 C 705.631 2.69906 -1.58491 0
M  V30 7114 C 706.106 3.82355 -2.52128 0
M  V30 7115 N 707.597 3.89728 -2.50332 0
M  V30 7116 C 708.332 4.76155 -3.19475 0
M  V30 7117 N 707.828 5.67073 -3.97995 0
M  V30 7118 N 709.621 4.6988 -3.08496 0
M  V30 7119 H 701.772 1.01613 -1.86517 0
M  V30 7120 H 704.035 0.507443 -0.800753 0
M  V30 7121 H 703.741 2.35542 -2.61176 0
M  V30 7122 H 703.615 3.53423 -1.31804 0
M  V30 7123 H 706.002 2.89792 -0.557208 0
M  V30 7124 H 706.083 1.73018 -1.8841 0
M  V30 7125 H 705.727 3.63224 -3.55008 0
M  V30 7126 H 705.657 4.7867 -2.19505 0
M  V30 7127 H 708.148 3.24717 -1.93306 0
M  V30 7128 H 708.461 6.2988 -4.4774 0
M  V30 7129 H 706.806 5.6687 -4.02098 0
M  V30 7130 H 709.997 3.97848 -2.46646 0
M  V30 7131 H 710.17 5.37017 -3.62652 0
M  V30 7132 N 703.576 0.692616 1.41565 0
M  V30 7133 C 704.524 0.0139952 2.32596 0
M  V30 7134 C 705.518 -0.771691 1.50802 0
M  V30 7135 O 706.724 -0.677646 1.66757 0
M  V30 7136 H 703.099 -0.0142745 0.751865 0
M  V30 7137 H 705.07 0.798851 2.87508 0
M  V30 7138 C 703.819 -0.910602 3.35564 0
M  V30 7139 H 703.142 -0.315446 3.98554 0
M  V30 7140 H 704.582 -1.3538 4.01806 0
M  V30 7141 C 703.041 -2.02539 2.6922 0
M  V30 7142 O 703.571 -3.11386 2.53775 0
M  V30 7143 N 701.777 -1.80227 2.27962 0
M  V30 7144 H 701.324 -0.917054 2.40724 0
M  V30 7145 H 701.282 -2.55001 1.83907 0
M  V30 7146 N 705.054 -1.51416 0.437162 0
M  V30 7147 C 706.284 -2.06204 -0.127859 0
M  V30 7148 C 706.692 -1.30463 -1.37026 0
M  V30 7149 O 706.035 -0.357516 -1.80187 0
M  V30 7150 C 706.097 -3.55783 -0.515632 0
M  V30 7151 C 705.761 -4.52776 0.619937 0
M  V30 7152 C 706.758 -4.98031 1.49201 0
M  V30 7153 C 704.443 -4.95878 0.800618 0
M  V30 7154 C 706.437 -5.85061 2.52947 0
M  V30 7155 C 704.124 -5.82699 1.84135 0
M  V30 7156 C 705.122 -6.27188 2.70416 0
M  V30 7157 O 704.81 -7.12284 3.72702 0
M  V30 7158 H 704.542 -0.675903 -0.011442 0
M  V30 7159 H 707.096 -1.95977 0.614986 0
M  V30 7160 H 705.326 -3.63793 -1.31118 0
M  V30 7161 H 707.015 -3.93087 -1.01179 0
M  V30 7162 H 707.781 -4.65426 1.36395 0
M  V30 7163 H 703.66 -4.60792 0.138617 0
M  V30 7164 H 707.204 -6.19708 3.20325 0
M  V30 7165 H 703.101 -6.14717 1.9696 0
M  V30 7166 H 703.869 -7.30462 3.69281 0
M  V30 7167 N 706.532 -0.168513 -1.56696 0
M  V30 7168 C 707.757 0.486688 -2.01609 0
M  V30 7169 C 708.182 1.56203 -1.04796 0
M  V30 7170 O 707.54 1.8128 -0.0270596 0
M  V30 7171 C 707.588 1.04451 -3.45141 0
M  V30 7172 O 706.692 2.15862 -3.51393 0
M  V30 7173 H 706.033 0.116831 -0.653641 0
M  V30 7174 H 708.563 -0.271579 -2.0279 0
M  V30 7175 H 708.573 1.36782 -3.84389 0
M  V30 7176 H 707.248 0.257155 -4.15104 0
M  V30 7177 H 705.825 1.84597 -3.24004 0
M  V30 7178 N 708.01 1.57248 0.105221 0
M  V30 7179 C 708.973 2.00388 1.11252 0
M  V30 7180 C 709.973 0.89594 1.33527 0
M  V30 7181 O 711.163 1.16166 1.29811 0
M  V30 7182 C 708.295 2.35589 2.46395 0
M  V30 7183 H 709.488 2.90591 0.741424 0
M  V30 7184 H 707.041 1.52332 0.349956 0
M  V30 7185 H 707.776 1.4831 2.884 0
M  V30 7186 H 707.561 3.16408 2.31578 0
M  V30 7187 H 709.051 2.69658 3.18864 0
M  V30 7188 N 709.488 -0.375779 1.53054 0
M  V30 7189 C 710.451 -1.44254 1.7811 0
M  V30 7190 C 711.451 -1.47018 0.651328 0
M  V30 7191 O 712.641 -1.47957 0.919472 0
M  V30 7192 C 709.773 -2.8345 1.89391 0
M  V30 7193 H 710.966 -1.23316 2.73374 0
M  V30 7194 H 708.519 -0.608312 1.43977 0
M  V30 7195 H 709.254 -3.09716 0.961589 0
M  V30 7196 H 709.039 -2.82844 2.71555 0
M  V30 7197 H 710.529 -3.60722 2.10404 0
M  V30 7198 N 710.966 -1.44241 -0.634997 0
M  V30 7199 C 712.243 -1.37296 -1.39317 0
M  V30 7200 C 712.623 -0.0297532 -2.11079 0
M  V30 7201 O 711.971 0.987524 -2.06059 0
M  V30 7202 C 712.181 -2.56853 -2.36279 0
M  V30 7203 C 713.529 -3.00747 -2.99728 0
M  V30 7204 O 714.553 -2.5703 -2.46605 0
M  V30 7205 O 713.412 -3.76533 -3.96087 0
M  V30 7206 H 710.506 -0.543503 -0.623325 0
M  V30 7207 H 713.052 -1.56324 -0.660376 0
M  V30 7208 H 711.824 -3.46228 -1.82324 0
M  V30 7209 H 711.447 -2.40019 -3.16981 0
M  V30 7210 N 712.444 0.87505 -1.31075 0
M  V30 7211 C 713.69 1.63009 -1.20647 0
M  V30 7212 C 714.023 1.9276 0.236045 0
M  V30 7213 O 713.298 1.55559 1.16754 0
M  V30 7214 C 713.581 2.96357 -2.0456 0
M  V30 7215 C 713.434 2.73516 -3.57084 0
M  V30 7216 C 714.753 3.974 -1.89107 0
M  V30 7217 H 711.872 0.591518 -0.439631 0
M  V30 7218 H 714.514 1.0119 -1.60812 0
M  V30 7219 H 712.664 3.49119 -1.70435 0
M  V30 7220 H 714.336 2.27465 -4.01319 0
M  V30 7221 H 712.579 2.0784 -3.80769 0
M  V30 7222 H 713.25 3.68377 -4.11099 0
M  V30 7223 H 715.726 3.5383 -2.18961 0
M  V30 7224 H 714.602 4.88596 -2.5013 0
M  V30 7225 H 714.863 4.33794 -0.85296 0
M  V30 7226 N 713.922 1.13953 1.08869 0
M  V30 7227 C 715.15 0.92817 1.84912 0
M  V30 7228 C 715.565 -0.523197 1.81406 0
M  V30 7229 O 714.922 -1.36237 1.21432 0
M  V30 7230 C 714.973 1.41509 3.32652 0
M  V30 7231 O 714.694 2.80959 3.36145 0
M  V30 7232 C 716.195 1.243 4.25517 0
M  V30 7233 H 713.415 0.330612 0.583898 0
M  V30 7234 H 715.959 1.51349 1.37527 0
M  V30 7235 H 714.114 0.872648 3.77444 0
M  V30 7236 H 714.528 3.02704 4.28335 0
M  V30 7237 H 716.002 1.63237 5.27312 0
M  V30 7238 H 716.479 0.18532 4.38809 0
M  V30 7239 H 717.085 1.77375 3.86546 0
M  V30 7240 N 715.4 -1.26948 0.933913 0
M  V30 7241 C 716.816 -1.46419 0.635103 0
M  V30 7242 C 717.016 -1.84336 -0.813785 0
M  V30 7243 O 716.072 -1.96061 -1.59111 0
M  V30 7244 C 717.385 -2.55206 1.5903 0
M  V30 7245 C 718.933 -2.69062 1.5992 0
M  V30 7246 C 719.408 -3.81013 2.54152 0
M  V30 7247 N 720.899 -3.88395 2.52395 0
M  V30 7248 C 721.634 -4.74454 3.21996 0
M  V30 7249 N 721.13 -5.64954 4.00997 0
M  V30 7250 N 722.923 -4.68237 3.10983 0
M  V30 7251 H 715.074 -1.00622 1.87053 0
M  V30 7252 H 717.337 -0.503189 0.803433 0
M  V30 7253 H 717.043 -2.34153 2.62422 0
M  V30 7254 H 716.917 -3.52719 1.33677 0
M  V30 7255 H 719.304 -2.89492 0.572569 0
M  V30 7256 H 719.385 -1.72016 1.89325 0
M  V30 7257 H 719.029 -3.61336 3.5693 0
M  V30 7258 H 718.959 -4.77499 2.22041 0
M  V30 7259 H 721.45 -3.23687 1.95025 0
M  V30 7260 H 721.763 -6.27496 4.51074 0
M  V30 7261 H 720.108 -5.6473 4.05099 0
M  V30 7262 H 723.299 -3.96535 2.48753 0
M  V30 7263 H 723.472 -5.35087 3.65494 0
M  V30 7264 N 716.879 -0.700114 -1.41195 0
M  V30 7265 C 717.842 -0.0465706 -2.29153 0
M  V30 7266 C 718.842 0.703302 -1.44604 0
M  V30 7267 O 720.032 0.537513 -1.657 0
M  V30 7268 C 717.164 0.944324 -3.2756 0
M  V30 7269 H 718.357 -0.821064 -2.88442 0
M  V30 7270 H 715.91 -0.463869 -1.49258 0
M  V30 7271 H 716.645 1.74642 -2.73259 0
M  V30 7272 H 716.43 0.409701 -3.89954 0
M  V30 7273 H 717.92 1.39925 -3.9346 0
M  V30 7274 N 718.357 1.51182 -0.445186 0
M  V30 7275 C 719.604 2.02152 0.118645 0
M  V30 7276 C 719.932 1.32888 1.42025 0
M  V30 7277 O 719.187 0.435041 1.90803 0
M  V30 7278 C 719.486 3.55408 0.376797 0
M  V30 7279 C 719.152 4.43008 -0.839945 0
M  V30 7280 C 717.814 4.66669 -1.17361 0
M  V30 7281 C 720.166 4.9435 -1.65127 0
M  V30 7282 C 717.494 5.38919 -2.31913 0
M  V30 7283 C 719.846 5.67857 -2.78786 0
M  V30 7284 C 718.51 5.89779 -3.12597 0
M  V30 7285 H 717.78 0.739727 0.0434152 0
M  V30 7286 H 720.427 1.82055 -0.593984 0
M  V30 7287 H 718.732 3.73879 1.1714 0
M  V30 7288 H 720.429 3.92388 0.826602 0
M  V30 7289 H 717.019 4.24793 -0.569958 0
M  V30 7290 H 721.203 4.75947 -1.4067 0
M  V30 7291 H 716.459 5.54105 -2.58413 0
M  V30 7292 H 720.633 6.06628 -3.42017 0
M  V30 7293 H 718.26 6.45542 -4.01471 0
M  V30 7294 N 719.835 0.176821 1.56605 0
M  V30 7295 C 721.06 -0.47599 2.01864 0
M  V30 7296 C 721.485 -1.55645 1.05623 0
M  V30 7297 O 720.843 -1.81263 0.0366729 0
M  V30 7298 C 720.891 -1.02619 3.4569 0
M  V30 7299 O 719.995 -2.13996 3.52533 0
M  V30 7300 H 719.336 -0.113363 0.654251 0
M  V30 7301 H 721.866 0.28233 2.02643 0
M  V30 7302 H 721.876 -1.34742 3.85109 0
M  V30 7303 H 720.551 -0.235138 4.15235 0
M  V30 7304 H 719.128 -1.82876 3.24978 0
M  V30 7305 N 721.313 -1.57302 -0.09688 0
M  V30 7306 C 722.541 -1.90202 -0.814295 0
M  V30 7307 C 722.956 -0.770344 -1.72369 0
M  V30 7308 O 722.313 0.257764 -1.8067 0
M  V30 7309 C 722.364 -3.22708 -1.62916 0
M  V30 7310 O 722.085 -4.31522 -0.756343 0
M  V30 7311 C 723.586 -3.69459 -2.44979 0
M  V30 7312 H 720.806 -0.629275 -0.232925 0
M  V30 7313 H 723.35 -2.04364 -0.0746482 0
M  V30 7314 H 721.505 -3.1015 -2.32133 0
M  V30 7315 H 721.919 -5.07604 -1.32054 0
M  V30 7316 H 723.393 -4.64875 -2.9765 0
M  V30 7317 H 723.87 -2.97211 -3.23361 0
M  V30 7318 H 724.476 -3.84879 -1.80964 0
M  V30 7319 N 722.791 0.367657 -1.53252 0
M  V30 7320 C 724.037 1.11216 -1.69584 0
M  V30 7321 C 724.37 1.89026 -0.445269 0
M  V30 7322 O 723.645 1.86342 0.557404 0
M  V30 7323 C 723.928 2.07308 -2.94441 0
M  V30 7324 C 723.781 1.3312 -4.2965 0
M  V30 7325 C 725.1 3.07459 -3.14892 0
M  V30 7326 H 722.219 0.40294 -0.617096 0
M  V30 7327 H 724.861 0.393201 -1.85887 0
M  V30 7328 H 723.011 2.68617 -2.80673 0
M  V30 7329 H 724.683 0.746111 -4.55226 0
M  V30 7330 H 722.926 0.633051 -4.29156 0
M  V30 7331 H 723.597 2.03443 -5.13142 0
M  V30 7332 H 726.073 2.56252 -3.27832 0
M  V30 7333 H 724.949 3.71919 -4.03693 0
M  V30 7334 H 725.21 3.77514 -2.30077 0
M  V30 7335 N 724.269 1.44576 0.627338 0
M  V30 7336 C 725.517 1.47267 1.38408 0
M  V30 7337 C 725.838 0.107971 1.94701 0
M  V30 7338 O 725.108 -0.860206 1.76004 0
M  V30 7339 H 723.688 0.542276 0.513756 0
M  V30 7340 H 726.35 1.80383 0.738099 0
M  V30 7341 H 725.446 2.20025 2.21349 0
M  V30 7342 N 725.747 -0.868086 1.31537 0
M  V30 7343 C 726.993 -1.62367 1.2151 0
M  V30 7344 C 727.326 -1.92883 -0.225819 0
M  V30 7345 O 726.601 -1.56176 -1.15927 0
M  V30 7346 C 726.884 -2.95268 2.06129 0
M  V30 7347 C 726.737 -2.71619 3.58529 0
M  V30 7348 C 728.056 -3.96391 1.91212 0
M  V30 7349 H 725.175 -0.589178 0.442762 0
M  V30 7350 H 727.817 -1.00336 1.61347 0
M  V30 7351 H 725.967 -3.4821 1.72284 0
M  V30 7352 H 727.639 -2.25334 4.0252 0
M  V30 7353 H 725.882 -2.05817 3.81866 0
M  V30 7354 H 726.553 -3.66192 4.13047 0
M  V30 7355 H 729.029 -3.52663 2.20834 0
M  V30 7356 H 727.905 -4.87263 2.52718 0
M  V30 7357 H 728.166 -4.33335 0.875953 0
M  V30 7358 N 727.225 -1.14528 -1.08264 0
M  V30 7359 C 728.453 -0.937964 -1.84418 0
M  V30 7360 C 728.868 0.51357 -1.81681 0
M  V30 7361 O 728.225 1.35591 -1.22153 0
M  V30 7362 C 728.276 -1.43272 -3.31897 0
M  V30 7363 O 727.997 -2.82738 -3.34651 0
M  V30 7364 C 729.498 -1.26555 -4.24851 0
M  V30 7365 H 726.718 -0.333704 -0.582136 0
M  V30 7366 H 729.262 -1.52076 -1.36723 0
M  V30 7367 H 727.417 -0.892653 -3.76975 0
M  V30 7368 H 727.831 -3.04971 -4.26724 0
M  V30 7369 H 729.305 -1.66031 -5.26439 0
M  V30 7370 H 729.782 -0.208589 -4.38704 0
M  V30 7371 H 730.388 -1.79423 -3.856 0
M  V30 7372 N 728.703 1.26451 -0.940633 0
M  V30 7373 C 729.943 1.95537 -0.595381 0
M  V30 7374 C 730.307 1.72175 0.849683 0
M  V30 7375 O 731.508 2.3506 1.30384 0
M  V30 7376 C 729.779 3.45151 -0.927669 0
M  V30 7377 S 731.338 4.33295 -0.69288 0
M  V30 7378 H 728.156 0.676331 -0.219311 0
M  V30 7379 H 730.758 1.53411 -1.21183 0
M  V30 7380 H 729.462 3.59654 -1.9768 0
M  V30 7381 H 728.993 3.92247 -0.300921 0
M  V30 7382 H 731.008 4.94217 0.443175 0
M  V30 7383 N 730.181 0.707592 1.40822 0
M  V30 7384 C 731.592 0.317011 1.83989 0
M  V30 7385 C 731.943 -1.14697 1.59182 0
M  V30 7386 O 731.068 -1.8818 1.06852 0
M  V30 7387 C 731.663 0.568593 3.33995 0
M  V30 7388 C 730.222 0.231804 3.75686 0
M  V30 7389 C 729.369 0.844933 2.64114 0
M  V30 7390 H 732.32 0.907349 1.30203 0
M  V30 7391 H 732.341 -0.168798 3.80125 0
M  V30 7392 H 731.853 1.63417 3.52018 0
M  V30 7393 H 729.954 -0.82903 3.6326 0
M  V30 7394 H 730.067 0.695219 4.74029 0
M  V30 7395 H 728.431 0.273588 2.53226 0
M  V30 7396 H 729.214 1.91462 2.84951 0
M  V30 7397 N 731.66 -1.50943 0.453197 0
M  V30 7398 C 732.885 -2.07116 -0.108463 0
M  V30 7399 C 733.31 -1.31681 -1.3432 0
M  V30 7400 O 732.668 -0.359256 -1.77705 0
M  V30 7401 C 732.716 -3.58447 -0.393424 0
M  V30 7402 O 731.82 -3.85038 -1.47714 0
M  V30 7403 H 731.161 -0.66398 0.0050993 0
M  V30 7404 H 733.691 -1.94362 0.639095 0
M  V30 7405 H 733.701 -4.02961 -0.639222 0
M  V30 7406 H 732.376 -4.12774 0.508946 0
M  V30 7407 H 730.953 -3.52376 -1.22006 0
M  V30 7408 N 733.138 -0.185124 -1.56509 0
M  V30 7409 C 734.101 0.72591 -2.17401 0
M  V30 7410 C 735.101 1.14819 -1.12575 0
M  V30 7411 O 736.291 1.0629 -1.38015 0
M  V30 7412 C 733.423 1.98979 -2.76803 0
M  V30 7413 H 734.616 0.195588 -2.99262 0
M  V30 7414 H 732.169 0.0644772 -1.56167 0
M  V30 7415 H 732.904 2.56287 -1.98714 0
M  V30 7416 H 732.689 1.69583 -3.53531 0
M  V30 7417 H 734.179 2.63966 -3.23592 0
M  V30 7418 N 734.616 1.57351 0.0885366 0
M  V30 7419 C 735.546 2.05561 1.10757 0
M  V30 7420 C 736.527 0.945789 1.41382 0
M  V30 7421 O 737.712 1.21747 1.51299 0
M  V30 7422 C 734.842 2.48554 2.42566 0
M  V30 7423 C 733.796 3.63259 2.26334 0
M  V30 7424 C 733.122 3.9225 3.63378 0
M  V30 7425 C 734.422 4.93913 1.69844 0
M  V30 7426 H 736.116 2.90946 0.706468 0
M  V30 7427 H 733.662 1.39968 0.338385 0
M  V30 7428 H 735.615 2.8089 3.14132 0
M  V30 7429 H 734.339 1.60176 2.84625 0
M  V30 7430 H 732.998 3.31179 1.57213 0
M  V30 7431 H 732.646 3.0103 4.02976 0
M  V30 7432 H 732.346 4.69478 3.53362 0
M  V30 7433 H 733.87 4.27067 4.36401 0
M  V30 7434 H 735.284 5.24588 2.31258 0
M  V30 7435 H 733.681 5.75349 1.70569 0
M  V30 7436 H 734.751 4.80409 0.65843 0
M  V30 7437 O 736.133 -0.232414 1.59819 0
M  V30 7438 H 736.824 -0.874496 1.72836 0
M  V30 END ATOM
M  V30 BEGIN BOND
M  V30 END BOND
M  V30 END CTAB
M  END
$$$$
