drugbank_target|P14900 UDP-N-acetylmuramoylalanine--D-glutamate ligase (DB01673; DB02314; DB03801; DB08105; DB08106; DB08107; DB08108; DB08112)
 OpenBabel12092119503D

  0  0  0     0  0            999 V3000
M  V30 BEGIN CTAB
M  V30 COUNTS 6583 6637 0 0 0
M  V30 BEGIN ATOM
M  V30 1 H -0.908 1.98254 -0.117106 0
M  V30 2 N 0 1.576 0 0
M  V30 3 C 0.933 2.03868 1.02534 0
M  V30 4 C 1.911 0.928543 1.3348 0
M  V30 5 O 3.095 1.19667 1.45644 0
M  V30 6 C 0.222 2.43627 2.35294 0
M  V30 7 C -0.732 3.65373 2.2001 0
M  V30 8 S 0.101 5.13292 1.52614 0
M  V30 9 C 1.257 5.56322 2.86805 0
M  V30 10 H 1.49 2.90518 0.631377 0
M  V30 11 H -0.977 1.52953 0.210867 0
M  V30 12 H 0.981 2.67203 3.11629 0
M  V30 13 H -0.358 1.57376 2.7183 0
M  V30 14 H -1.165 3.90944 3.18086 0
M  V30 15 H -1.563 3.418 1.51819 0
M  V30 16 H 0.729 5.58782 3.83104 0
M  V30 17 H 1.672 6.56266 2.65933 0
M  V30 18 H 2.08 4.83886 2.90714 0
M  V30 19 N 1.4781 -0.272755 1.55222 0
M  V30 20 C 2.4411 -1.32041 1.87344 0
M  V30 21 C 3.4411 -1.42342 0.74803 0
M  V30 22 O 4.6311 -1.41488 1.0162 0
M  V30 23 C 1.7631 -2.70173 2.07893 0
M  V30 24 H 2.9561 -1.04789 2.80997 0
M  V30 25 H 0.5091 -0.51083 1.47717 0
M  V30 26 H 1.2441 -3.02605 1.16622 0
M  V30 27 H 1.0291 -2.64082 2.89833 0
M  V30 28 H 2.5191 -3.45869 2.34017 0
M  V30 29 N 2.9562 -1.48159 -0.537278 0
M  V30 30 C 4.2332 -1.46291 -1.29839 0
M  V30 31 C 4.6132 -0.170613 -2.10409 0
M  V30 32 O 3.9612 0.847746 -2.12192 0
M  V30 33 C 4.1712 -2.72055 -2.18603 0
M  V30 34 C 5.5192 -3.20087 -2.7898 0
M  V30 35 O 6.5432 -2.72921 -2.28894 0
M  V30 36 O 5.4022 -4.02138 -3.70064 0
M  V30 37 H 2.4962 -0.583906 -0.585647 0
M  V30 38 H 5.0422 -1.60384 -0.554534 0
M  V30 39 H 3.8142 -3.57628 -1.58801 0
M  V30 40 H 3.4372 -2.60646 -3.00249 0
M  V30 41 N 4.4343 0.785586 -1.36625 0
M  V30 42 C 5.6643 1.5722 -1.34036 0
M  V30 43 C 6.0723 1.89033 0.0795062 0
M  V30 44 O 5.4153 1.50881 1.04789 0
M  V30 45 C 5.4773 2.91759 -2.10041 0
M  V30 46 C 5.1413 2.82654 -3.59104 0
M  V30 47 C 6.1383 2.54634 -4.53274 0
M  V30 48 C 3.8233 3.01111 -4.02042 0
M  V30 49 C 5.8173 2.45177 -5.88359 0
M  V30 50 C 3.5043 2.91276 -5.37216 0
M  V30 51 C 4.5023 2.63348 -6.30188 0
M  V30 52 O 4.1903 2.53514 -7.6288 0
M  V30 53 H 3.9223 0.494177 -0.461265 0
M  V30 54 H 6.4763 0.982632 -1.8037 0
M  V30 55 H 4.7063 3.52781 -1.58375 0
M  V30 56 H 6.3953 3.53059 -2.00261 0
M  V30 57 H 7.1613 2.40073 -4.21414 0
M  V30 58 H 3.0403 3.21854 -3.30047 0
M  V30 59 H 6.5843 2.23299 -6.60896 0
M  V30 60 H 2.4813 3.054 -5.68684 0
M  V30 61 H 3.2493 2.68967 -7.73045 0
M  V30 62 N 5.9124 1.20967 1.01018 0
M  V30 63 C 6.8444 0.922059 2.09835 0
M  V30 64 C 7.8574 -0.0927106 1.62536 0
M  V30 65 O 9.0464 0.139127 1.77957 0
M  V30 66 C 6.1464 0.362004 3.36961 0
M  V30 67 C 5.3194 1.42986 4.13369 0
M  V30 68 C 4.3784 0.879976 5.1879 0
M  V30 69 O 3.4044 1.56219 5.47343 0
M  V30 70 N 4.6064 -0.307396 5.79686 0
M  V30 71 H 7.3714 1.8588 2.35093 0
M  V30 72 H 4.9324 1.11422 1.1746 0
M  V30 73 H 6.9244 -0.0201474 4.04695 0
M  V30 74 H 5.4944 -0.479437 3.08902 0
M  V30 75 H 4.7144 1.98608 3.40512 0
M  V30 76 H 6.0024 2.14885 4.61196 0
M  V30 77 H 5.4004 -0.878796 5.58832 0
M  V30 78 H 3.9574 -0.631115 6.48737 0
M  V30 79 N 7.3905 -1.2043 1.01659 0
M  V30 80 C 8.6385 -1.89423 0.704522 0
M  V30 81 C 8.9595 -1.79231 -0.768197 0
M  V30 82 O 8.2295 -1.1947 -1.55254 0
M  V30 83 H 6.8095 -0.701178 0.257602 0
M  V30 84 H 9.4715 -1.4626 1.28818 0
M  V30 85 H 8.5675 -2.96052 0.987916 0
M  V30 86 N 8.8686 -0.792821 -1.36206 0
M  V30 87 C 9.8156 -0.191653 -2.30003 0
M  V30 88 C 10.7856 0.666453 -1.52143 0
M  V30 89 O 11.9706 0.61442 -1.80636 0
M  V30 90 C 9.1106 0.664848 -3.38635 0
M  V30 91 C 8.2236 -0.212175 -4.31479 0
M  V30 92 C 7.3586 0.651022 -5.27196 0
M  V30 93 C 6.3976 -0.227247 -6.11678 0
M  V30 94 N 5.5346 0.595127 -6.99573 0
M  V30 95 H 10.3746 -0.996978 -2.80828 0
M  V30 96 H 7.9116 -0.503206 -1.38225 0
M  V30 97 H 9.8696 1.17645 -4.00269 0
M  V30 98 H 8.4996 1.43557 -2.89122 0
M  V30 99 H 7.5516 -0.841777 -3.70969 0
M  V30 100 H 8.8636 -0.888751 -4.90818 0
M  V30 101 H 8.0176 1.2283 -5.94136 0
M  V30 102 H 6.7566 1.36121 -4.68319 0
M  V30 103 H 5.7616 -0.816904 -5.43697 0
M  V30 104 H 6.9866 -0.93509 -6.72631 0
M  V30 105 H 4.9326 1.28955 -6.432 0
M  V30 106 H 4.8496 -0.0236952 -7.55996 0
M  V30 107 H 6.1176 1.15613 -7.70879 0
M  V30 108 N 10.3467 1.47872 -0.545128 0
M  V30 109 C 11.2947 2.31533 0.222512 0
M  V30 110 C 12.2887 1.42177 0.920985 0
M  V30 111 O 13.4947 1.59005 0.843645 0
M  V30 112 H 9.8697 0.746519 0.0906278 0
M  V30 113 H 11.8407 2.94139 -0.50246 0
M  V30 114 C 10.5897 3.2457 1.24699 0
M  V30 115 H 9.9127 3.93283 0.718944 0
M  V30 116 H 11.3527 3.85963 1.75523 0
M  V30 117 C 9.8117 2.47237 2.28856 0
M  V30 118 O 10.3417 2.20808 3.35569 0
M  V30 119 N 8.5477 2.08461 2.02466 0
M  V30 120 H 8.0947 2.30155 1.157 0
M  V30 121 H 8.0527 1.57033 2.72375 0
M  V30 122 N 11.8248 0.280983 1.55075 0
M  V30 123 C 13.0708 -0.33461 2.00021 0
M  V30 124 C 13.4038 -1.55063 1.16915 0
M  V30 125 O 12.6788 -1.93006 0.240646 0
M  V30 126 C 12.9618 -0.711007 3.53011 0
M  V30 127 C 12.8148 0.512766 4.46868 0
M  V30 128 C 14.1338 -1.54522 4.12081 0
M  V30 129 H 11.2528 -0.120147 0.727141 0
M  V30 130 H 13.8948 0.389097 1.85973 0
M  V30 131 H 12.0448 -1.32761 3.65112 0
M  V30 132 H 13.7168 1.15131 4.46702 0
M  V30 133 H 11.9598 1.14975 4.18286 0
M  V30 134 H 12.6308 0.205556 5.51617 0
M  V30 135 H 15.1068 -1.02442 4.03293 0
M  V30 136 H 13.9828 -1.77739 5.19327 0
M  V30 137 H 14.2438 -2.52813 3.62682 0
M  V30 138 N 13.3029 -1.57598 0.00835791 0
M  V30 139 C 14.5489 -1.91211 -0.675732 0
M  V30 140 C 14.8819 -0.883139 -1.72958 0
M  V30 141 O 14.1569 0.097016 -1.94258 0
M  V30 142 C 14.4399 -3.35379 -1.31123 0
M  V30 143 C 14.2929 -4.48999 -0.268356 0
M  V30 144 C 15.6119 -3.7912 -2.23508 0
M  V30 145 H 12.7309 -0.695374 -0.244179 0
M  V30 146 H 15.3729 -1.89901 0.0613655 0
M  V30 147 H 13.5229 -3.36626 -1.93946 0
M  V30 148 H 15.1949 -4.59887 0.360844 0
M  V30 149 H 13.4379 -4.31873 0.408482 0
M  V30 150 H 14.1089 -5.46851 -0.752218 0
M  V30 151 H 16.5849 -3.79477 -1.70693 0
M  V30 152 H 15.4609 -4.80729 -2.64936 0
M  V30 153 H 15.7219 -3.13455 -3.11766 0
M  V30 154 N 14.781 0.264519 -1.55364 0
M  V30 155 C 16.03 0.992812 -1.75574 0
M  V30 156 C 16.343 1.87142 -0.568979 0
M  V30 157 O 17.549 2.63513 -0.653682 0
M  V30 158 C 16.005 1.81519 -3.10771 0
M  V30 159 C 15.613 0.984839 -4.37041 0
M  V30 160 C 17.357 2.53727 -3.40327 0
M  V30 161 C 15.264 1.80209 -5.63275 0
M  V30 162 H 14.194 0.374412 -0.65447 0
M  V30 163 H 16.845 0.248138 -1.81815 0
M  V30 164 H 15.227 2.60115 -2.98591 0
M  V30 165 H 16.401 0.242455 -4.60162 0
M  V30 166 H 14.716 0.37691 -4.14691 0
M  V30 167 H 17.313 3.15292 -4.3185 0
M  V30 168 H 17.656 3.24447 -2.60845 0
M  V30 169 H 18.189 1.82156 -3.53644 0
M  V30 170 H 14.928 1.13896 -6.45529 0
M  V30 171 H 14.448 2.52022 -5.44284 0
M  V30 172 H 16.127 2.37364 -6.01887 0
M  V30 173 N 16.2591 1.48442 0.529413 0
M  V30 174 C 17.5081 1.55742 1.28169 0
M  V30 175 C 17.8211 0.236511 1.94165 0
M  V30 176 O 19.0271 0.187761 2.7085 0
M  V30 177 C 17.4831 2.74667 2.32564 0
M  V30 178 C 17.0911 4.13402 1.72636 0
M  V30 179 C 18.8351 2.9128 3.08798 0
M  V30 180 C 16.7421 5.23587 2.74975 0
M  V30 181 H 15.6721 0.579796 0.48203 0
M  V30 182 H 18.3231 1.74776 0.559056 0
M  V30 183 H 16.7051 2.49067 3.07866 0
M  V30 184 H 17.8791 4.49022 1.03519 0
M  V30 185 H 16.1941 4.0191 1.08892 0
M  V30 186 H 18.7911 3.70767 3.85274 0
M  V30 187 H 19.1341 2.00757 3.64695 0
M  V30 188 H 19.6671 3.16782 2.40611 0
M  V30 189 H 16.4061 6.16076 2.23897 0
M  V30 190 H 15.9261 4.92454 3.42417 0
M  V30 191 H 17.6051 5.51724 3.37949 0
M  V30 192 N 17.7372 -0.778329 1.37039 0
M  V30 193 C 18.9852 -1.53361 1.31623 0
M  V30 194 C 19.3062 -1.94739 -0.100831 0
M  V30 195 O 18.5762 -1.65797 -1.04347 0
M  V30 196 H 17.1562 -0.568794 0.484234 0
M  V30 197 H 19.8182 -0.926742 1.71457 0
M  V30 198 H 18.9142 -2.43606 1.95096 0
M  V30 199 N 19.2153 -1.21501 -1.00376 0
M  V30 200 C 20.1453 -0.999478 -2.11028 0
M  V30 201 C 21.1263 0.0759671 -1.6993 0
M  V30 202 O 22.3113 -0.0841106 -1.94018 0
M  V30 203 C 19.4413 -0.564709 -3.42678 0
M  V30 204 C 18.3953 -1.58486 -3.97576 0
M  V30 205 C 17.7213 -1.00628 -5.25146 0
M  V30 206 C 19.0213 -2.97204 -4.29496 0
M  V30 207 H 20.7153 -1.92495 -2.29317 0
M  V30 208 H 18.2613 -0.92693 -1.102 0
M  V30 209 H 20.2143 -0.401091 -4.19487 0
M  V30 210 H 18.9383 0.396411 -3.24185 0
M  V30 211 H 17.5973 -1.73606 -3.22888 0
M  V30 212 H 17.2453 -0.0368439 -5.02987 0
M  V30 213 H 16.9453 -1.68771 -5.62841 0
M  V30 214 H 18.4693 -0.854015 -6.04598 0
M  V30 215 H 19.8833 -2.8552 -4.97143 0
M  V30 216 H 18.2803 -3.62372 -4.78338 0
M  V30 217 H 19.3503 -3.47956 -3.3772 0
M  V30 218 N 20.6934 1.19889 -1.02296 0
M  V30 219 C 21.9414 1.89046 -0.714558 0
M  V30 220 C 22.2624 1.79636 0.758681 0
M  V30 221 O 21.5324 1.20292 1.54618 0
M  V30 222 H 20.1124 0.699802 -0.261317 0
M  V30 223 H 22.7744 1.45574 -1.29592 0
M  V30 224 H 21.8704 2.95524 -1.0036 0
M  V30 225 N 22.1715 0.800033 1.35784 0
M  V30 226 C 23.1015 0.220184 2.3246 0
M  V30 227 C 24.0825 -0.65073 1.57161 0
M  V30 228 O 25.2675 -0.582359 1.85263 0
M  V30 229 C 22.3975 -0.637353 3.41402 0
M  V30 230 C 21.3515 0.134531 4.27789 0
M  V30 231 C 20.6775 -0.844285 5.27992 0
M  V30 232 C 21.9775 1.32979 5.05088 0
M  V30 233 H 23.6715 1.02787 2.81203 0
M  V30 234 H 21.2175 0.495717 1.35199 0
M  V30 235 H 23.1705 -1.05302 4.08031 0
M  V30 236 H 21.8945 -1.47785 2.91251 0
M  V30 237 H 20.5535 0.531296 3.6273 0
M  V30 238 H 20.2015 -1.68011 4.74111 0
M  V30 239 H 19.9015 -0.332184 5.8666 0
M  V30 240 H 21.4255 -1.2583 5.97494 0
M  V30 241 H 22.8395 0.98934 5.64699 0
M  V30 242 H 21.2365 1.77593 5.7322 0
M  V30 243 H 22.3065 2.11978 4.36111 0
M  V30 244 N 23.6496 -1.47581 0.552962 0
M  V30 245 C 24.8776 -2.06875 0.0320556 0
M  V30 246 C 25.2926 -1.40625 -1.25976 0
M  V30 247 O 24.6496 -0.501349 -1.75479 0
M  V30 248 C 24.7006 -3.61092 -0.17167 0
M  V30 249 O 24.4216 -4.24858 1.06899 0
M  V30 250 C 25.9226 -4.37242 -0.730344 0
M  V30 251 H 23.1426 -0.669561 0.043915 0
M  V30 252 H 25.6866 -1.89646 0.765163 0
M  V30 253 H 23.8416 -3.7785 -0.854894 0
M  V30 254 H 24.2556 -5.17334 0.864059 0
M  V30 255 H 25.7296 -5.45842 -0.822203 0
M  V30 256 H 26.2066 -4.03235 -1.74064 0
M  V30 257 H 26.8126 -4.25219 -0.0829543 0
M  V30 258 N 25.1277 -0.289203 -1.54924 0
M  V30 259 C 26.3757 0.322879 -1.99504 0
M  V30 260 C 26.6967 1.55313 -1.1791 0
M  V30 261 O 25.9667 1.94001 -0.272097 0
M  V30 262 H 24.5467 0.122291 -0.736922 0
M  V30 263 H 27.2087 -0.397802 -1.90797 0
M  V30 264 H 26.3047 0.603061 -3.06218 0
M  V30 265 N 26.6058 1.57591 -0.0167156 0
M  V30 266 C 27.5358 2.12496 0.967858 0
M  V30 267 C 28.5168 1.03807 1.34752 0
M  V30 268 O 29.7018 1.31577 1.42833 0
M  V30 269 C 26.8318 2.64194 2.25431 0
M  V30 270 C 25.7858 3.77559 2.01576 0
M  V30 271 C 25.1118 4.15636 3.36379 0
M  V30 272 C 26.4118 5.04151 1.36489 0
M  V30 273 H 28.1058 2.95013 0.510643 0
M  V30 274 H 25.6518 1.41915 0.244181 0
M  V30 275 H 27.6048 3.01236 2.94678 0
M  V30 276 H 26.3288 1.78821 2.73296 0
M  V30 277 H 24.9878 3.40937 1.34751 0
M  V30 278 H 24.6358 3.27263 3.81979 0
M  V30 279 H 24.3358 4.92022 3.21229 0
M  V30 280 H 25.8598 4.5525 4.06915 0
M  V30 281 H 27.2738 5.38857 1.95718 0
M  V30 282 H 25.6708 5.85453 1.31776 0
M  V30 283 H 26.7408 4.83733 0.336219 0
M  V30 284 N 28.0839 -0.256276 1.55502 0
M  V30 285 C 29.3089 -1.00766 1.81276 0
M  V30 286 C 29.7339 -1.78524 0.59252 0
M  V30 287 O 29.0919 -1.75413 -0.45827 0
M  V30 288 C 29.1399 -1.92869 3.04687 0
M  V30 289 O 28.2439 -3.019 2.80945 0
M  V30 290 H 27.5849 -0.287224 0.598664 0
M  V30 291 H 30.1149 -0.280109 2.02674 0
M  V30 292 H 30.1249 -2.34511 3.33869 0
M  V30 293 H 28.7999 -1.35689 3.93143 0
M  V30 294 H 27.3769 -2.64454 2.62904 0
M  V30 295 N 29.562 -1.4872 -0.521534 0
M  V30 296 C 30.802 -1.58771 -1.28729 0
M  V30 297 C 31.166 -0.259394 -1.9024 0
M  V30 298 O 32.367 -0.234942 -2.67771 0
M  V30 299 C 30.638 -2.70039 -2.34124 0
M  V30 300 S 32.197 -2.9991 -3.20312 0
M  V30 301 H 29.015 -0.560251 -0.437767 0
M  V30 302 H 31.617 -1.86283 -0.593188 0
M  V30 303 H 30.321 -3.65101 -1.87429 0
M  V30 304 H 29.852 -2.44455 -3.08229 0
M  V30 305 H 31.867 -2.39855 -4.34378 0
M  V30 306 N 31.0401 0.771051 -1.3745 0
M  V30 307 C 32.2861 1.5319 -1.32894 0
M  V30 308 C 32.6191 1.94008 0.0862511 0
M  V30 309 O 31.8941 1.64124 1.04373 0
M  V30 310 C 32.1771 2.79648 -2.26868 0
M  V30 311 C 32.0301 2.45079 -3.77169 0
M  V30 312 C 33.3491 3.81583 -2.19277 0
M  V30 313 H 30.4681 0.555744 -0.484064 0
M  V30 314 H 33.1101 0.884492 -1.68157 0
M  V30 315 H 31.2601 3.34891 -1.96926 0
M  V30 316 H 32.9321 1.95745 -4.1771 0
M  V30 317 H 31.1751 1.77767 -3.95704 0
M  V30 318 H 31.8461 3.35478 -4.38359 0
M  V30 319 H 34.3221 3.35835 -2.45671 0
M  V30 320 H 33.1981 4.67787 -2.87171 0
M  V30 321 H 33.4591 4.25897 -1.18592 0
M  V30 322 N 32.5182 1.22032 0.997298 0
M  V30 323 C 33.7952 0.950823 1.70935 0
M  V30 324 C 34.1752 -0.535292 2.042 0
M  V30 325 O 33.5232 -1.50217 1.72183 0
M  V30 326 C 33.7332 1.84386 2.96315 0
M  V30 327 C 35.0812 2.09732 3.69185 0
M  V30 328 O 36.1052 1.81798 3.06314 0
M  V30 329 O 34.9642 2.57018 4.82291 0
M  V30 330 H 32.0582 0.357204 0.745878 0
M  V30 331 H 34.6042 1.32997 1.05404 0
M  V30 332 H 33.3762 2.84928 2.68201 0
M  V30 333 H 32.9992 1.46602 3.69586 0
M  V30 334 N 33.9963 -1.19345 1.0293 0
M  V30 335 C 35.2433 -1.89038 0.726008 0
M  V30 336 C 35.5713 -1.79649 -0.745427 0
M  V30 337 O 34.8263 -1.18354 -1.55855 0
M  V30 338 C 35.1253 -3.39292 1.12319 0
M  V30 339 C 34.7913 -3.68885 2.59297 0
M  V30 340 C 33.4533 -3.76671 2.99453 0
M  V30 341 C 35.8053 -3.82178 3.54386 0
M  V30 342 C 33.1333 -3.9522 4.33611 0
M  V30 343 C 35.4853 -4.0224 4.88248 0
M  V30 344 C 34.1493 -4.08259 5.28092 0
M  V30 345 H 33.4193 -0.691739 0.265665 0
M  V30 346 H 36.0663 -1.41328 1.29223 0
M  V30 347 H 34.3713 -3.88903 0.475584 0
M  V30 348 H 36.0683 -3.91536 0.866037 0
M  V30 349 H 32.6583 -3.63433 2.27189 0
M  V30 350 H 36.8423 -3.75505 3.24514 0
M  V30 351 H 32.0983 -3.98119 4.64016 0
M  V30 352 H 36.2723 -4.11468 5.61843 0
M  V30 353 H 33.8993 -4.22384 6.32057 0
M  V30 354 N 35.4744 -0.807222 -1.35358 0
M  V30 355 C 36.7214 -0.387888 -1.9875 0
M  V30 356 C 37.0494 1.04509 -1.64037 0
M  V30 357 O 36.3044 1.73986 -0.895946 0
M  V30 358 C 36.6034 -0.519036 -3.53611 0
M  V30 359 C 36.2694 -1.91542 -4.08194 0
M  V30 360 C 34.9314 -2.29745 -4.22813 0
M  V30 361 C 37.2834 -2.82896 -4.37744 0
M  V30 362 C 34.6114 -3.58668 -4.643 0
M  V30 363 C 36.9634 -4.11265 -4.8067 0
M  V30 364 C 35.6274 -4.49466 -4.93494 0
M  V30 365 H 34.8974 -0.141938 -0.727279 0
M  V30 366 H 37.5444 -1.02814 -1.6156 0
M  V30 367 H 35.8494 0.204658 -3.91265 0
M  V30 368 H 37.5464 -0.175345 -4.00616 0
M  V30 369 H 34.1364 -1.60862 -3.97268 0
M  V30 370 H 38.3204 -2.54629 -4.26002 0
M  V30 371 H 33.5764 -3.88113 -4.72418 0
M  V30 372 H 37.7504 -4.82153 -5.02496 0
M  V30 373 H 35.3774 -5.49418 -5.25399 0
M  V30 374 N 36.9525 1.47285 -0.560781 0
M  V30 375 C 37.8825 2.32857 0.173105 0
M  V30 376 C 38.8635 1.44009 0.905281 0
M  V30 377 O 40.0485 1.7286 0.885046 0
M  V30 378 C 37.1785 3.25861 1.20133 0
M  V30 379 C 36.1325 4.23978 0.585388 0
M  V30 380 C 35.4585 5.06332 1.7185 0
M  V30 381 C 36.7585 5.20242 -0.463178 0
M  V30 382 H 38.4525 2.94466 -0.541307 0
M  V30 383 H 35.9985 1.41601 -0.261764 0
M  V30 384 H 37.9515 3.84569 1.72293 0
M  V30 385 H 36.6755 2.62315 1.94573 0
M  V30 386 H 35.3345 3.66501 0.085054 0
M  V30 387 H 34.9825 4.39186 2.45203 0
M  V30 388 H 34.6825 5.72762 1.31213 0
M  V30 389 H 36.2065 5.67899 2.24329 0
M  V30 390 H 37.6205 5.73293 -0.027502 0
M  V30 391 H 36.0175 5.94896 -0.788627 0
M  V30 392 H 37.0875 4.65504 -1.35773 0
M  V30 393 N 38.4306 0.297415 1.54768 0
M  V30 394 C 39.3936 -0.567375 2.22066 0
M  V30 395 C 40.3936 -1.06409 1.20556 0
M  V30 396 O 41.5836 -0.960691 1.45315 0
M  V30 397 C 38.7156 -1.78517 2.90421 0
M  V30 398 H 39.9086 0.0205534 2.99893 0
M  V30 399 H 37.4616 0.0482163 1.56226 0
M  V30 400 H 38.1966 -2.41303 2.16664 0
M  V30 401 H 37.9816 -1.43669 3.64831 0
M  V30 402 H 39.4716 -2.39964 3.41771 0
M  V30 403 N 39.9087 -1.5758 0.0250728 0
M  V30 404 C 41.3247 -1.56124 -0.331282 0
M  V30 405 C 41.5247 -1.03029 -1.73169 0
M  V30 406 O 40.5807 -0.675215 -2.43305 0
M  V30 407 C 41.8937 -3.00139 -0.183584 0
M  V30 408 C 43.4417 -3.11946 -0.256654 0
M  V30 409 C 43.9167 -4.57793 -0.137792 0
M  V30 410 N 45.4077 -4.6279 -0.194904 0
M  V30 411 C 46.1427 -5.7326 -0.126655 0
M  V30 412 N 45.6387 -6.928 -0.00755288 0
M  V30 413 N 47.4317 -5.61811 -0.180348 0
M  V30 414 H 39.5827 -1.90424 0.94087 0
M  V30 415 H 41.8457 -0.875761 0.362968 0
M  V30 416 H 41.5517 -3.4292 0.780927 0
M  V30 417 H 41.4257 -3.64899 -0.955448 0
M  V30 418 H 43.8127 -2.69079 -1.21162 0
M  V30 419 H 43.8937 -2.49915 0.545517 0
M  V30 420 H 43.5377 -5.01339 0.813739 0
M  V30 421 H 43.4677 -5.17798 -0.958775 0
M  V30 422 H 45.9587 -3.76807 -0.287267 0
M  V30 423 H 46.2717 -7.72791 0.0379428 0
M  V30 424 H 44.6167 -6.94995 0.0271731 0
M  V30 425 H 47.8077 -4.6731 -0.271767 0
M  V30 426 H 47.9807 -6.47882 -0.123697 0
M  V30 427 N 41.3868 0.248026 -1.55636 0
M  V30 428 C 42.6348 0.974295 -1.77065 0
M  V30 429 C 42.9558 1.85897 -0.588849 0
M  V30 430 O 42.2258 1.91868 0.395407 0
M  V30 431 H 40.8058 0.362733 -0.653019 0
M  V30 432 H 43.4678 0.266244 -1.93073 0
M  V30 433 H 42.5638 1.59667 -2.68166 0
M  V30 434 N 42.8649 1.48995 0.513639 0
M  V30 435 C 44.1109 1.58076 1.27042 0
M  V30 436 C 44.4439 0.261026 1.92438 0
M  V30 437 O 43.7189 -0.734393 1.80103 0
M  V30 438 C 44.0019 2.73091 2.34719 0
M  V30 439 C 43.8549 4.14821 1.73907 0
M  V30 440 C 45.1739 2.83796 3.36375 0
M  V30 441 H 42.2929 0.575391 0.460536 0
M  V30 442 H 44.9349 1.81232 0.570516 0
M  V30 443 H 43.0849 2.53479 2.94416 0
M  V30 444 H 44.7569 4.45917 1.18135 0
M  V30 445 H 42.9999 4.21058 1.0437 0
M  V30 446 H 43.6709 4.91147 2.51949 0
M  V30 447 H 46.1469 3.01611 2.86653 0
M  V30 448 H 45.0229 3.65971 4.09093 0
M  V30 449 H 45.2839 1.92624 3.9793 0
M  V30 450 N 44.343 -0.763751 1.37857 0
M  V30 451 C 45.571 -1.55293 1.36718 0
M  V30 452 C 45.986 -1.88745 -0.0455434 0
M  V30 453 O 45.343 -1.52039 -1.00947 0
M  V30 454 C 45.394 -2.85831 2.2132 0
M  V30 455 O 45.115 -2.5381 3.57089 0
M  V30 456 C 46.616 -3.80023 2.28249 0
M  V30 457 H 43.836 -0.480841 0.468009 0
M  V30 458 H 46.38 -0.946009 1.81303 0
M  V30 459 H 44.535 -3.42926 1.80223 0
M  V30 460 H 44.949 -3.37459 4.01524 0
M  V30 461 H 46.423 -4.68599 2.91752 0
M  V30 462 H 46.9 -4.1973 1.2932 0
M  V30 463 H 47.506 -3.28855 2.69693 0
M  V30 464 N 45.8211 -1.22559 -0.990812 0
M  V30 465 C 47.2321 -1.04791 -1.54518 0
M  V30 466 C 47.5831 0.387998 -1.92325 0
M  V30 467 O 46.7081 1.27328 -1.74976 0
M  V30 468 C 47.3031 -1.896 -2.80779 0
M  V30 469 C 45.8621 -1.76124 -3.32652 0
M  V30 470 C 45.0091 -1.8594 -2.05722 0
M  V30 471 H 47.9601 -1.36374 -0.811662 0
M  V30 472 H 47.9811 -1.41464 -3.53225 0
M  V30 473 H 47.4931 -2.94101 -2.53231 0
M  V30 474 H 45.5941 -0.743643 -3.65104 0
M  V30 475 H 45.7071 -2.58913 -4.03114 0
M  V30 476 H 44.0711 -1.29403 -2.19379 0
M  V30 477 H 44.8541 -2.91976 -1.80568 0
M  V30 478 N 47.2992 1.18797 -1.03562 0
M  V30 479 C 48.7152 1.40671 -0.753917 0
M  V30 480 C 48.9152 1.9043 0.658686 0
M  V30 481 O 47.9712 2.08538 1.42366 0
M  V30 482 C 49.2842 2.41192 -1.79574 0
M  V30 483 C 50.8322 2.54928 -1.81606 0
M  V30 484 C 51.3072 3.58709 -2.84766 0
M  V30 485 N 52.7982 3.66212 -2.83625 0
M  V30 486 C 53.5332 4.46225 -3.60098 0
M  V30 487 N 53.0292 5.29888 -4.46308 0
M  V30 488 N 54.8222 4.40939 -3.4861 0
M  V30 489 H 46.9732 0.848221 -1.94728 0
M  V30 490 H 49.2362 0.435081 -0.842264 0
M  V30 491 H 48.9422 2.11669 -2.80872 0
M  V30 492 H 48.8162 3.40467 -1.62365 0
M  V30 493 H 51.2032 2.83771 -0.809817 0
M  V30 494 H 51.2842 1.55784 -2.02891 0
M  V30 495 H 50.9282 3.30607 -3.85566 0
M  V30 496 H 50.8582 4.57519 -2.60737 0
M  V30 497 H 53.3492 3.06466 -2.21105 0
M  V30 498 H 53.6622 5.88078 -5.01382 0
M  V30 499 H 52.0072 5.29326 -4.50377 0
M  V30 500 H 55.1982 3.74624 -2.80668 0
M  V30 501 H 55.3712 5.03056 -4.08459 0
M  V30 502 N 48.7773 0.814389 1.34928 0
M  V30 503 C 50.0233 0.399013 1.98836 0
M  V30 504 C 50.3563 -1.03314 1.64438 0
M  V30 505 O 49.6313 -1.71811 0.911659 0
M  V30 506 C 49.9143 0.591629 3.55207 0
M  V30 507 C 49.7673 2.06928 3.99376 0
M  V30 508 C 51.0863 0.022199 4.40094 0
M  V30 509 H 48.2053 0.146451 0.722303 0
M  V30 510 H 50.8473 1.02537 1.59957 0
M  V30 511 H 48.9973 0.0584441 3.88456 0
M  V30 512 H 50.6693 2.66544 3.76499 0
M  V30 513 H 48.9123 2.56287 3.49999 0
M  V30 514 H 49.5833 2.1549 5.08201 0
M  V30 515 H 52.0593 0.477643 4.13349 0
M  V30 516 H 50.9353 0.186832 5.48582 0
M  V30 517 H 51.1963 -1.07215 4.28902 0
M  V30 518 N 50.2554 -1.46986 0.568584 0
M  V30 519 C 51.1884 -2.27129 -0.220779 0
M  V30 520 C 52.1664 -1.34757 -0.909905 0
M  V30 521 O 53.3504 -1.64152 -0.926622 0
M  V30 522 C 50.4774 -3.12108 -1.31553 0
M  V30 523 C 49.5234 -4.20141 -0.733748 0
M  V30 524 S 50.3564 -5.33783 0.428479 0
M  V30 525 C 51.5124 -6.22327 -0.667811 0
M  V30 526 H 51.7454 -2.93731 0.459267 0
M  V30 527 H 49.2784 -1.5026 0.355154 0
M  V30 528 H 51.2364 -3.61636 -1.94241 0
M  V30 529 H 49.8974 -2.44847 -1.96746 0
M  V30 530 H 49.0904 -4.79373 -1.5562 0
M  V30 531 H 48.6924 -3.73553 -0.182812 0
M  V30 532 H 50.9844 -6.59364 -1.55708 0
M  V30 533 H 51.9274 -7.0801 -0.11258 0
M  V30 534 H 52.3354 -5.5618 -0.965601 0
M  V30 535 N 51.7335 -0.305618 -1.54608 0
M  V30 536 C 53.0105 0.355652 -1.92339 0
M  V30 537 C 53.3905 1.71324 -1.23335 0
M  V30 538 O 52.7385 2.25473 -0.370702 0
M  V30 539 C 52.9485 0.46572 -3.45879 0
M  V30 540 C 54.2965 0.734426 -4.182 0
M  V30 541 O 55.3205 0.54935 -3.51938 0
M  V30 542 O 54.1795 1.09024 -5.35515 0
M  V30 543 H 51.2735 0.199666 -0.802535 0
M  V30 544 H 53.8195 -0.354017 -1.65966 0
M  V30 545 H 52.5915 -0.488461 -3.88239 0
M  V30 546 H 52.2145 1.22367 -3.78301 0
M  V30 547 N 53.2116 1.57565 -0.0334293 0
M  V30 548 C 54.4396 1.9628 0.654347 0
M  V30 549 C 54.8546 0.910138 1.65414 0
M  V30 550 O 54.2116 -0.107595 1.82183 0
M  V30 551 C 54.2626 3.35067 1.35693 0
M  V30 552 O 53.9836 4.36296 0.397191 0
M  V30 553 C 55.4846 3.88439 2.13613 0
M  V30 554 H 52.7046 0.646369 0.180132 0
M  V30 555 H 55.2486 2.04282 -0.0944721 0
M  V30 556 H 53.4036 3.2827 2.05712 0
M  V30 557 H 53.8176 5.1678 0.896597 0
M  V30 558 H 55.2916 4.8788 2.58219 0
M  V30 559 H 55.7686 3.22914 2.97696 0
M  V30 560 H 56.3746 3.98516 1.48543 0
M  V30 561 N 54.6897 -0.239769 1.55765 0
M  V30 562 C 56.1057 -0.588624 1.48349 0
M  V30 563 C 56.3057 -1.88005 0.72502 0
M  V30 564 O 55.3617 -2.51186 0.257269 0
M  V30 565 C 56.6747 -0.68474 2.928 0
M  V30 566 C 58.2227 -0.77659 3.03213 0
M  V30 567 C 58.6977 -0.904207 4.48986 0
M  V30 568 N 60.1887 -0.968896 4.52953 0
M  V30 569 C 60.9237 -1.08703 5.63002 0
M  V30 570 N 60.4197 -1.17026 6.82845 0
M  V30 571 N 62.2127 -1.12074 5.50814 0
M  V30 572 H 54.3637 0.607911 2.03515 0
M  V30 573 H 56.6267 0.21083 0.924259 0
M  V30 574 H 56.3327 0.194284 3.51163 0
M  V30 575 H 56.2067 -1.55435 3.43686 0
M  V30 576 H 58.5937 -1.64606 2.44926 0
M  V30 577 H 58.6747 0.118315 2.55526 0
M  V30 578 H 58.3187 -0.0392633 5.07885 0
M  V30 579 H 58.2487 -1.81426 4.9436 0
M  V30 580 H 60.7397 -0.915633 3.6664 0
M  V30 581 H 61.0527 -1.25966 7.62465 0
M  V30 582 H 59.3977 -1.13971 6.85591 0
M  V30 583 H 62.5887 -1.05226 4.5612 0
M  V30 584 H 62.7617 -1.20936 6.36615 0
M  V30 585 N 56.1678 -1.49265 -0.50573 0
M  V30 586 C 57.1008 -1.60183 -1.62532 0
M  V30 587 C 58.0788 -0.451107 -1.56217 0
M  V30 588 O 59.2628 -0.666016 -1.76342 0
M  V30 589 C 56.3898 -1.55238 -3.01029 0
M  V30 590 C 55.4358 -2.7545 -3.25621 0
M  V30 591 S 56.2688 -4.37174 -3.09256 0
M  V30 592 C 57.4248 -4.34866 -4.50158 0
M  V30 593 H 57.6578 -2.54894 -1.53025 0
M  V30 594 H 55.1908 -1.38098 -0.690535 0
M  V30 595 H 57.1488 -1.53071 -3.80893 0
M  V30 596 H 55.8098 -0.618238 -3.07956 0
M  V30 597 H 55.0028 -2.68197 -4.26716 0
M  V30 598 H 54.6048 -2.75005 -2.53472 0
M  V30 599 H 56.8968 -4.06295 -5.42154 0
M  V30 600 H 57.8398 -5.36223 -4.62462 0
M  V30 601 H 58.2478 -3.65007 -4.30616 0
M  V30 602 N 57.6459 0.756429 -1.3826 0
M  V30 603 C 58.8739 1.54565 -1.3754 0
M  V30 604 C 59.2889 1.88767 0.0355331 0
M  V30 605 O 58.6459 1.52572 1.0014 0
M  V30 606 C 58.6969 2.84654 -2.22833 0
M  V30 607 O 58.4179 2.51912 -3.5843 0
M  V30 608 C 59.9189 3.78807 -2.30261 0
M  V30 609 H 57.1389 0.478353 -0.470553 0
M  V30 610 H 59.6829 0.936381 -1.81803 0
M  V30 611 H 57.8379 3.41965 -1.8204 0
M  V30 612 H 58.2519 3.35325 -4.03308 0
M  V30 613 H 59.7259 4.67045 -2.94233 0
M  V30 614 H 60.2029 4.19038 -1.31545 0
M  V30 615 H 60.8089 3.2742 -2.71433 0
M  V30 616 N 59.124 1.23083 0.984299 0
M  V30 617 C 60.535 1.05609 1.5396 0
M  V30 618 C 60.886 -0.377793 1.92528 0
M  V30 619 O 60.011 -1.26398 1.75649 0
M  V30 620 C 60.606 1.91087 2.7977 0
M  V30 621 C 59.165 1.77885 3.31713 0
M  V30 622 C 58.312 1.87028 2.04733 0
M  V30 623 H 61.263 1.36802 0.804419 0
M  V30 624 H 61.284 1.43336 3.5247 0
M  V30 625 H 60.796 2.9544 2.51668 0
M  V30 626 H 58.897 0.762995 3.64704 0
M  V30 627 H 59.01 2.61047 4.01735 0
M  V30 628 H 57.374 1.30565 2.18689 0
M  V30 629 H 58.157 2.92929 1.79017 0
M  V30 630 N 60.6021 -1.18246 1.0419 0
M  V30 631 C 62.0131 -1.69914 0.773698 0
M  V30 632 C 62.3641 -1.83085 -0.705297 0
M  V30 633 O 61.4891 -1.51123 -1.5489 0
M  V30 634 C 62.0841 -3.08619 1.39784 0
M  V30 635 C 60.6431 -3.57494 1.17792 0
M  V30 636 C 59.7901 -2.34013 1.48773 0
M  V30 637 H 62.7411 -1.02904 1.20816 0
M  V30 638 H 62.7621 -3.71958 0.801714 0
M  V30 639 H 62.2741 -2.99001 2.47426 0
M  V30 640 H 60.3751 -3.72406 0.120295 0
M  V30 641 H 60.4881 -4.40852 1.87581 0
M  V30 642 H 58.8521 -2.37986 0.907463 0
M  V30 643 H 59.6351 -2.27013 2.57527 0
M  V30 644 N 62.0802 -0.821533 -1.34494 0
M  V30 645 C 63.3282 -0.408139 -1.97936 0
M  V30 646 C 63.6492 1.03193 -1.65457 0
M  V30 647 O 62.9192 1.71622 -0.944595 0
M  V30 648 H 61.4992 -0.147928 -0.732206 0
M  V30 649 H 64.1612 -1.05067 -1.64155 0
M  V30 650 H 63.2572 -0.52601 -3.07635 0
M  V30 651 N 63.5583 1.46682 -0.576371 0
M  V30 652 C 64.4883 2.33028 0.148397 0
M  V30 653 C 65.4693 1.44961 0.889956 0
M  V30 654 O 66.6543 1.73789 0.866662 0
M  V30 655 C 63.7843 3.27117 1.1667 0
M  V30 656 C 62.7383 4.24575 0.540386 0
M  V30 657 C 62.0643 5.08126 1.6647 0
M  V30 658 C 63.3643 5.19722 -0.518331 0
M  V30 659 H 65.0583 2.93875 -0.572509 0
M  V30 660 H 62.6043 1.41315 -0.276768 0
M  V30 661 H 64.5573 3.86374 1.68204 0
M  V30 662 H 63.2813 2.64364 1.9178 0
M  V30 663 H 61.9403 3.66571 0.0461769 0
M  V30 664 H 61.5883 4.41762 2.40531 0
M  V30 665 H 61.2883 5.74122 1.25131 0
M  V30 666 H 62.8123 5.70246 2.18293 0
M  V30 667 H 64.2263 5.73232 -0.0883058 0
M  V30 668 H 62.6233 5.94026 -0.851679 0
M  V30 669 H 63.6933 4.64037 -1.40703 0
M  V30 670 N 65.0364 0.313813 1.54444 0
M  V30 671 C 66.3134 -0.345447 1.92525 0
M  V30 672 C 66.6934 -1.70667 1.24242 0
M  V30 673 O 66.0414 -2.25273 0.382654 0
M  V30 674 C 66.2514 -0.44737 3.46121 0
M  V30 675 C 67.5994 -0.712238 4.18584 0
M  V30 676 O 68.6234 -0.530678 3.52225 0
M  V30 677 O 67.4824 -1.06183 5.36085 0
M  V30 678 H 64.5764 -0.195407 0.803583 0
M  V30 679 H 67.1224 0.362813 1.65776 0
M  V30 680 H 65.8944 0.509043 3.87975 0
M  V30 681 H 65.5174 -1.20359 3.78945 0
M  V30 682 N 66.5145 -1.57545 0.0417849 0
M  V30 683 C 67.4615 -2.10977 -0.935805 0
M  V30 684 C 68.4315 -1.01486 -1.31491 0
M  V30 685 O 69.6165 -1.2898 -1.40602 0
M  V30 686 C 66.7565 -2.65169 -2.2086 0
M  V30 687 C 65.8695 -3.88714 -1.88482 0
M  V30 688 C 65.0045 -4.31254 -3.1015 0
M  V30 689 C 64.0435 -5.47524 -2.7365 0
M  V30 690 N 63.1805 -5.85162 -3.87982 0
M  V30 691 H 68.0205 -2.94218 -0.473249 0
M  V30 692 H 65.5575 -1.45415 -0.221981 0
M  V30 693 H 67.5155 -2.94685 -2.95325 0
M  V30 694 H 66.1455 -1.8474 -2.64709 0
M  V30 695 H 65.1975 -3.65849 -1.04205 0
M  V30 696 H 66.5095 -4.73245 -1.57608 0
M  V30 697 H 65.6635 -4.62273 -3.92923 0
M  V30 698 H 64.4025 -3.45516 -3.44195 0
M  V30 699 H 63.4075 -5.16187 -1.89291 0
M  V30 700 H 64.6325 -6.34971 -2.40807 0
M  V30 701 H 62.5785 -5.02377 -4.21846 0
M  V30 702 H 62.4955 -6.64362 -3.60775 0
M  V30 703 H 63.7635 -6.20791 -4.71422 0
M  V30 704 N 67.9926 0.231505 -1.5589 0
M  V30 705 C 68.9226 1.29022 -1.94617 0
M  V30 706 C 69.9036 1.4941 -0.813067 0
M  V30 707 O 71.0886 1.6176 -1.07459 0
M  V30 708 C 68.2186 2.64199 -2.25424 0
M  V30 709 C 67.1726 2.58484 -3.41131 0
M  V30 710 C 66.4986 3.97599 -3.57518 0
M  V30 711 C 67.7986 2.1413 -4.76388 0
M  V30 712 H 69.4926 0.968563 -2.83301 0
M  V30 713 H 67.0386 0.464479 -1.36303 0
M  V30 714 H 68.9916 3.38413 -2.51107 0
M  V30 715 H 67.7156 2.98032 -1.33583 0
M  V30 716 H 66.3746 1.86727 -3.15481 0
M  V30 717 H 66.0226 4.28723 -2.6307 0
M  V30 718 H 65.7226 3.94659 -4.35337 0
M  V30 719 H 67.2466 4.7349 -3.85538 0
M  V30 720 H 68.6606 2.78083 -5.01341 0
M  V30 721 H 67.0576 2.2227 -5.57419 0
M  V30 722 H 68.1276 1.09331 -4.72414 0
M  V30 723 N 69.4707 1.49531 0.497807 0
M  V30 724 C 70.8817 1.52344 1.07927 0
M  V30 725 C 71.2327 0.311469 1.93712 0
M  V30 726 O 70.3577 -0.578405 2.08527 0
M  V30 727 C 70.9527 2.76062 1.96405 0
M  V30 728 C 69.5117 2.81643 2.49709 0
M  V30 729 C 68.6587 2.46299 1.27404 0
M  V30 730 H 71.6097 1.56182 0.281576 0
M  V30 731 H 71.6307 2.56405 2.81135 0
M  V30 732 H 71.1427 3.64254 1.33943 0
M  V30 733 H 69.2437 1.97739 3.15801 0
M  V30 734 H 69.3567 3.83891 2.86643 0
M  V30 735 H 67.7207 1.98148 1.60029 0
M  V30 736 H 68.5037 3.36769 0.66645 0
M  V30 737 N 70.9488 -0.749086 1.3866 0
M  V30 738 C 71.8588 -1.89358 1.38494 0
M  V30 739 C 72.8748 -1.71708 0.281476 0
M  V30 740 O 74.0508 -1.94554 0.520643 0
M  V30 741 C 71.1158 -3.24782 1.21316 0
M  V30 742 C 70.1768 -3.54926 2.41508 0
M  V30 743 C 69.4098 -4.83888 2.2514 0
M  V30 744 O 69.6328 -5.56592 1.24746 0
M  V30 745 O 68.5668 -5.13612 3.13826 0
M  V30 746 H 72.3928 -1.92452 2.34938 0
M  V30 747 H 69.9778 -0.894981 1.19626 0
M  V30 748 H 71.8598 -4.05739 1.13814 0
M  V30 749 H 70.5348 -3.2249 0.279592 0
M  V30 750 H 69.4418 -2.74112 2.54585 0
M  V30 751 H 70.7748 -3.61983 3.3351 0
M  V30 752 N 72.4269 -1.23603 -0.977757 0
M  V30 753 C 73.3899 -1.02069 -2.05218 0
M  V30 754 C 74.3899 0.0184305 -1.60789 0
M  V30 755 O 75.5799 -0.221569 -1.72785 0
M  V30 756 C 72.7119 -0.544926 -3.36517 0
M  V30 757 H 73.9049 -1.9742 -2.25755 0
M  V30 758 H 71.4579 -1.05684 -1.15155 0
M  V30 759 H 72.1929 0.412241 -3.21669 0
M  V30 760 H 71.9779 -1.2948 -3.70105 0
M  V30 761 H 73.4679 -0.414985 -4.15533 0
M  V30 762 N 73.905 1.17692 -1.04816 0
M  V30 763 C 75.151 1.88137 -0.75711 0
M  V30 764 C 75.484 1.80604 0.713841 0
M  V30 765 O 74.759 1.21146 1.52164 0
M  V30 766 C 75.042 3.38318 -1.2334 0
M  V30 767 C 74.895 3.54622 -2.76701 0
M  V30 768 C 76.214 4.32214 -0.829415 0
M  V30 769 H 73.333 0.683163 -0.27651 0
M  V30 770 H 75.975 1.38424 -1.30149 0
M  V30 771 H 74.125 3.80787 -0.770286 0
M  V30 772 H 75.797 3.21194 -3.31107 0
M  V30 773 H 74.04 2.97026 -3.16161 0
M  V30 774 H 74.711 4.60028 -3.05088 0
M  V30 775 H 77.187 3.97565 -1.22805 0
M  V30 776 H 76.063 5.35838 -1.19033 0
M  V30 777 H 76.324 4.41294 0.266891 0
M  V30 778 N 75.3831 0.828654 1.34056 0
M  V30 779 C 76.2931 0.256725 2.33191 0
M  V30 780 C 77.3091 -0.611898 1.62886 0
M  V30 781 O 78.4851 -0.51844 1.94613 0
M  V30 782 C 75.5501 -0.567238 3.42028 0
M  V30 783 C 74.6111 0.324458 4.28072 0
M  V30 784 C 73.8441 -0.460274 5.31712 0
M  V30 785 O 74.0671 -1.693 5.44696 0
M  V30 786 O 73.0011 0.160391 6.01686 0
M  V30 787 H 76.8271 1.07739 2.83947 0
M  V30 788 H 74.4121 0.59093 1.37217 0
M  V30 789 H 76.2941 -1.03582 4.08471 0
M  V30 790 H 74.9691 -1.36513 2.93506 0
M  V30 791 H 73.8761 0.840659 3.64532 0
M  V30 792 H 75.2091 1.08685 4.8005 0
M  V30 793 N 76.8612 -1.46375 0.584142 0
M  V30 794 C 78.2772 -1.57694 0.245929 0
M  V30 795 C 78.4772 -1.57903 -1.25175 0
M  V30 796 O 77.5332 -1.49676 -2.03355 0
M  V30 797 C 78.8462 -2.87028 0.896402 0
M  V30 798 C 80.3942 -3.00662 0.870127 0
M  V30 799 C 80.8692 -4.32734 1.50017 0
M  V30 800 N 82.3602 -4.39436 1.46458 0
M  V30 801 C 83.0952 -5.40248 1.92144 0
M  V30 802 N 82.5912 -6.47726 2.4581 0
M  V30 803 N 84.3842 -5.31459 1.83052 0
M  V30 804 H 76.5352 -1.44483 1.55687 0
M  V30 805 H 78.7982 -0.689291 0.650831 0
M  V30 806 H 78.5042 -2.9269 1.95002 0
M  V30 807 H 78.3782 -3.75014 0.405486 0
M  V30 808 H 80.7652 -2.94581 -0.174871 0
M  V30 809 H 80.8462 -2.14148 1.39908 0
M  V30 810 H 80.4902 -4.39573 2.54437 0
M  V30 811 H 80.4202 -5.18025 0.946432 0
M  V30 812 H 82.9112 -3.62367 1.07231 0
M  V30 813 H 83.2242 -7.20863 2.78525 0
M  V30 814 H 81.5692 -6.48542 2.49836 0
M  V30 815 H 84.7602 -4.46396 1.40883 0
M  V30 816 H 84.9332 -6.09881 2.18973 0
M  V30 817 N 78.3393 -0.321999 -1.54275 0
M  V30 818 C 79.2893 0.560185 -2.21011 0
M  V30 819 C 80.2733 1.08283 -1.19011 0
M  V30 820 O 81.4653 1.02011 -1.44647 0
M  V30 821 C 78.5943 1.72137 -2.97025 0
M  V30 822 C 77.6803 1.21369 -4.06363 0
M  V30 823 N 78.0713 0.425566 -5.04007 0
M  V30 824 C 76.3693 1.49255 -4.20284 0
M  V30 825 C 77.0703 0.152601 -5.815 0
M  V30 826 N 76.0463 0.738294 -5.38563 0
M  V30 827 H 79.8483 -0.049265 -2.93859 0
M  V30 828 H 77.3623 -0.127779 -1.61897 0
M  V30 829 H 79.3593 2.36512 -3.43319 0
M  V30 830 H 78.0193 2.33431 -2.25699 0
M  V30 831 H 79.0303 0.068551 -5.17855 0
M  V30 832 H 75.7073 2.11145 -3.60172 0
M  V30 833 H 77.0973 -0.481764 -6.70171 0
M  V30 834 N 79.8174 1.5752 -0.0501392 0
M  V30 835 C 81.0454 1.96963 0.633492 0
M  V30 836 C 81.4604 0.927631 1.6444 0
M  V30 837 O 80.8174 -0.0882665 1.82286 0
M  V30 838 C 80.8684 3.36487 1.32132 0
M  V30 839 O 80.5894 4.36693 0.350894 0
M  V30 840 C 82.0904 3.90682 2.09481 0
M  V30 841 H 79.3104 0.648244 0.173266 0
M  V30 842 H 81.8544 2.0417 -0.116134 0
M  V30 843 H 80.0094 3.30434 2.02218 0
M  V30 844 H 80.4234 5.17702 0.841735 0
M  V30 845 H 81.8974 4.90591 2.5303 0
M  V30 846 H 82.3744 3.26053 2.94255 0
M  V30 847 H 82.9804 4.00069 1.44307 0
M  V30 848 N 81.2955 -0.223234 1.56011 0
M  V30 849 C 82.5435 -0.946003 1.78592 0
M  V30 850 C 82.8645 -1.84936 0.618349 0
M  V30 851 O 82.1345 -1.92473 -0.364833 0
M  V30 852 H 80.7145 -0.352298 0.658707 0
M  V30 853 H 83.3765 -0.235494 1.93472 0
M  V30 854 H 82.4725 -1.55381 2.70672 0
M  V30 855 N 82.7736 -1.49793 -0.48987 0
M  V30 856 C 83.9986 -1.63836 -1.27172 0
M  V30 857 C 84.4236 -0.31402 -1.8546 0
M  V30 858 O 83.7816 0.719803 -1.66399 0
M  V30 859 C 83.8296 -2.71797 -2.36978 0
M  V30 860 O 82.9336 -2.31744 -3.41128 0
M  V30 861 H 82.2746 -0.547997 -0.37496 0
M  V30 862 H 84.8046 -1.96053 -0.585191 0
M  V30 863 H 84.8146 -2.94305 -2.82575 0
M  V30 864 H 83.4896 -3.67923 -1.93921 0
M  V30 865 H 82.0666 -2.1961 -3.01373 0
M  V30 866 N 84.2517 0.741722 -1.39055 0
M  V30 867 C 85.1817 1.869 -1.39966 0
M  V30 868 C 86.1627 1.6804 -0.26392 0
M  V30 869 O 87.3477 1.88458 -0.468755 0
M  V30 870 C 84.4777 3.24572 -1.23574 0
M  V30 871 C 83.4317 3.58056 -2.34477 0
M  V30 872 C 82.7577 4.94593 -2.0318 0
M  V30 873 C 84.0577 3.61716 -3.76774 0
M  V30 874 H 85.7517 1.86395 -2.34302 0
M  V30 875 H 83.2977 0.895361 -1.1278 0
M  V30 876 H 85.2507 4.031 -1.22834 0
M  V30 877 H 83.9747 3.25587 -0.257045 0
M  V30 878 H 82.6337 2.81854 -2.34423 0
M  V30 879 H 82.2817 4.92181 -1.03765 0
M  V30 880 H 81.9817 5.17964 -2.77465 0
M  V30 881 H 83.5057 5.75486 -2.04079 0
M  V30 882 H 84.9197 4.30335 -3.78794 0
M  V30 883 H 83.3167 3.96603 -4.50362 0
M  V30 884 H 84.3867 2.61672 -4.08235 0
M  V30 885 N 85.7298 1.2412 0.971189 0
M  V30 886 C 86.6778 1.02812 2.08644 0
M  V30 887 C 87.6718 -0.0358403 1.69362 0
M  V30 888 O 88.8778 0.118429 1.7961 0
M  V30 889 H 85.2528 0.315428 0.682649 0
M  V30 890 H 87.2238 1.97397 2.23779 0
M  V30 891 C 85.9728 0.645874 3.41649 0
M  V30 892 H 85.2958 1.45632 3.72332 0
M  V30 893 H 86.7358 0.536366 4.20594 0
M  V30 894 C 85.1948 -0.646713 3.30635 0
M  V30 895 O 85.7248 -1.69338 3.64263 0
M  V30 896 N 83.9308 -0.626115 2.83775 0
M  V30 897 H 83.4778 0.225988 2.56607 0
M  V30 898 H 83.4358 -1.49117 2.76788 0
M  V30 899 N 87.2079 -1.17134 1.05439 0
M  V30 900 C 88.4849 -1.83411 0.679699 0
M  V30 901 C 88.8649 -1.9368 -0.839726 0
M  V30 902 O 88.2129 -1.47325 -1.74664 0
M  V30 903 C 88.4229 -3.20918 1.37159 0
M  V30 904 C 89.7709 -3.96796 1.51123 0
M  V30 905 O 90.7949 -3.30406 1.3308 0
M  V30 906 O 89.6539 -5.15778 1.80651 0
M  V30 907 H 86.7479 -0.79154 0.239569 0
M  V30 908 H 89.2939 -1.24411 1.15413 0
M  V30 909 H 88.0659 -3.08428 2.40807 0
M  V30 910 H 87.6889 -3.87587 0.886674 0
M  V30 911 N 88.686 -0.835752 -1.33615 0
M  V30 912 C 89.596 -0.269088 -2.33052 0
M  V30 913 C 90.612 0.603251 -1.63208 0
M  V30 914 O 91.788 0.508112 -1.94885 0
M  V30 915 C 88.853 0.549091 -3.42324 0
M  V30 916 C 87.914 -0.347156 -4.27894 0
M  V30 917 C 87.147 0.43207 -5.31948 0
M  V30 918 O 87.37 1.66409 -5.45586 0
M  V30 919 O 86.304 -0.192298 -6.01593 0
M  V30 920 H 90.13 -1.09243 -2.83372 0
M  V30 921 H 87.715 -0.598198 -1.36901 0
M  V30 922 H 89.597 1.01414 -4.09015 0
M  V30 923 H 88.272 1.34955 -2.94226 0
M  V30 924 H 87.179 -0.859979 -3.64081 0
M  V30 925 H 88.512 -1.1123 -4.79467 0
M  V30 926 N 90.1641 1.46063 -0.591896 0
M  V30 927 C 91.4101 2.03203 -0.0894879 0
M  V30 928 C 91.7651 1.45407 1.25994 0
M  V30 929 O 91.0581 0.61326 1.8152 0
M  V30 930 C 91.2521 3.57391 0.0249813 0
M  V30 931 C 91.0811 4.30142 -1.3118 0
M  V30 932 C 89.8511 4.68688 -1.88838 0
M  V30 933 C 92.0491 4.63098 -2.23708 0
M  V30 934 N 90.0311 5.26228 -3.1616 0
M  V30 935 C 91.4021 5.21305 -3.3562 0
M  V30 936 C 93.4571 4.45031 -2.23274 0
M  V30 937 C 92.1601 5.63351 -4.47245 0
M  V30 938 C 94.1861 4.881 -3.33935 0
M  V30 939 C 93.5481 5.46386 -4.44569 0
M  V30 940 H 89.6471 0.778323 -0.0757431 0
M  V30 941 H 92.2311 1.78094 -0.78681 0
M  V30 942 H 90.4021 3.82195 0.69149 0
M  V30 943 H 92.1341 4.0118 0.532613 0
M  V30 944 H 88.8891 4.5174 -1.42223 0
M  V30 945 H 89.3131 5.59512 -3.8115 0
M  V30 946 H 93.9551 3.99295 -1.39008 0
M  V30 947 H 91.6731 6.08061 -5.32247 0
M  V30 948 H 95.2591 4.75866 -3.34728 0
M  V30 949 H 94.1391 5.79102 -5.28782 0
M  V30 950 N 91.6422 0.330177 1.54103 0
M  V30 951 C 92.5722 -0.525353 2.27513 0
M  V30 952 C 93.5532 -1.11383 1.2856 0
M  V30 953 O 94.7382 -1.13773 1.57383 0
M  V30 954 C 91.8682 -1.6831 3.03791 0
M  V30 955 C 90.8222 -1.2236 4.10137 0
M  V30 956 C 90.1482 -2.46882 4.74293 0
M  V30 957 C 91.4482 -0.333697 5.21233 0
M  V30 958 H 93.1422 0.087013 2.99274 0
M  V30 959 H 90.6882 0.0432893 1.43935 0
M  V30 960 H 92.6412 -2.28795 3.5388 0
M  V30 961 H 91.3652 -2.32216 2.29659 0
M  V30 962 H 90.0242 -0.64165 3.60941 0
M  V30 963 H 89.6722 -3.09165 3.96769 0
M  V30 964 H 89.3722 -2.16825 5.46133 0
M  V30 965 H 90.8962 -3.08117 5.27159 0
M  V30 966 H 92.3102 -0.845013 5.67038 0
M  V30 967 H 90.7072 -0.125612 5.99969 0
M  V30 968 H 91.7772 0.633724 4.80741 0
M  V30 969 N 93.1203 -1.57491 0.0584922 0
M  V30 970 C 94.0533 -2.07533 -0.948969 0
M  V30 971 C 95.0313 -0.977444 -1.29942 0
M  V30 972 O 96.2153 -1.2499 -1.41102 0
M  V30 973 C 93.3423 -2.52192 -2.2609 0
M  V30 974 C 92.3883 -3.73287 -2.06298 0
M  V30 975 S 93.2213 -5.18603 -1.33459 0
M  V30 976 C 94.3773 -5.66583 -2.65959 0
M  V30 977 H 94.6103 -2.92662 -0.523118 0
M  V30 978 H 92.1433 -1.53631 -0.153954 0
M  V30 979 H 94.1013 -2.78585 -3.01498 0
M  V30 980 H 92.7623 -1.67356 -2.65802 0
M  V30 981 H 91.9553 -4.0248 -3.03357 0
M  V30 982 H 91.5573 -3.47199 -1.39029 0
M  V30 983 H 93.8493 -5.72616 -3.62101 0
M  V30 984 H 94.7923 -6.65684 -2.41393 0
M  V30 985 H 95.2003 -4.94342 -2.72554 0
M  V30 986 N 94.5984 0.214957 -1.56127 0
M  V30 987 C 95.5614 1.24997 -1.92116 0
M  V30 988 C 96.5614 1.39467 -0.800344 0
M  V30 989 O 97.7514 1.37619 -1.06802 0
M  V30 990 C 94.8834 2.62271 -2.17777 0
M  V30 991 H 96.0764 0.942875 -2.84693 0
M  V30 992 H 93.6294 0.455654 -1.49511 0
M  V30 993 H 94.3644 2.98068 -1.27773 0
M  V30 994 H 94.1494 2.53143 -2.99434 0
M  V30 995 H 95.6394 3.36946 -2.46693 0
M  V30 996 N 96.0765 1.50051 0.48192 0
M  V30 997 C 97.0395 1.67584 1.5636 0
M  V30 998 C 98.0395 0.546894 1.51214 0
M  V30 999 O 99.2295 0.813725 1.54026 0
M  V30 1000 C 96.3615 1.691 2.96003 0
M  V30 1001 H 97.5545 2.64078 1.42136 0
M  V30 1002 H 95.1075 1.39369 0.707533 0
M  V30 1003 H 95.8425 0.742589 3.15684 0
M  V30 1004 H 95.6275 2.51105 3.01146 0
M  V30 1005 H 97.1175 1.84656 3.74556 0
M  V30 1006 N 97.5546 -0.734337 1.39446 0
M  V30 1007 C 98.8316 -1.48579 1.27215 0
M  V30 1008 C 99.2116 -2.1077 -0.117968 0
M  V30 1009 O 98.5596 -1.98646 -1.12924 0
M  V30 1010 C 98.7696 -2.53667 2.39696 0
M  V30 1011 C 100.118 -3.20031 2.79044 0
M  V30 1012 O 101.142 -2.6398 2.39151 0
M  V30 1013 O 100.001 -4.21455 3.47905 0
M  V30 1014 H 97.0946 -0.659816 0.49857 0
M  V30 1015 H 99.6406 -0.768106 1.51322 0
M  V30 1016 H 98.4126 -2.06096 3.32626 0
M  V30 1017 H 98.0356 -3.32994 2.17258 0
M  V30 1018 N 99.0327 -1.24633 -0.964593 0
M  V30 1019 C 99.9627 -1.06611 -2.07741 0
M  V30 1020 C 100.944 0.0218666 -1.70086 0
M  V30 1021 O 102.129 -0.145793 -1.93652 0
M  V30 1022 C 99.2587 -0.673444 -3.40708 0
M  V30 1023 C 98.2127 -1.71054 -3.92332 0
M  V30 1024 C 97.5387 -1.17285 -5.21678 0
M  V30 1025 C 98.8387 -3.10718 -4.19824 0
M  V30 1026 H 100.533 -1.99693 -2.23076 0
M  V30 1027 H 98.0787 -0.96152 -1.07195 0
M  V30 1028 H 100.032 -0.534345 -4.17998 0
M  V30 1029 H 98.7557 0.293073 -3.25282 0
M  V30 1030 H 97.4147 -1.83791 -3.17201 0
M  V30 1031 H 97.0627 -0.196847 -5.02615 0
M  V30 1032 H 96.7627 -1.86592 -5.57187 0
M  V30 1033 H 98.2867 -1.04593 -6.01575 0
M  V30 1034 H 99.7007 -3.01192 -4.87808 0
M  V30 1035 H 98.0977 -3.77406 -4.66567 0
M  V30 1036 H 99.1677 -3.58524 -3.26479 0
M  V30 1037 N 100.511 1.16574 -1.06058 0
M  V30 1038 C 101.76 1.86385 -0.770944 0
M  V30 1039 C 102.073 1.82448 0.705129 0
M  V30 1040 O 103.279 2.47815 1.10905 0
M  V30 1041 C 101.735 3.34466 -1.32893 0
M  V30 1042 C 101.343 3.46883 -2.83507 0
M  V30 1043 C 103.087 4.09548 -1.11672 0
M  V30 1044 C 100.994 4.89036 -3.32562 0
M  V30 1045 H 99.9238 0.698181 -0.284709 0
M  V30 1046 H 102.575 1.31583 -1.27899 0
M  V30 1047 H 100.957 3.88859 -0.748662 0
M  V30 1048 H 102.131 3.02663 -3.47465 0
M  V30 1049 H 100.446 2.85232 -3.03368 0
M  V30 1050 H 103.043 5.14434 -1.45814 0
M  V30 1051 H 103.386 4.16264 -0.0549535 0
M  V30 1052 H 103.919 3.61387 -1.66265 0
M  V30 1053 H 100.658 4.87499 -4.38207 0
M  V30 1054 H 100.178 5.3389 -2.73351 0
M  V30 1055 H 101.857 5.57843 -3.2775 0
M  V30 1056 N 101.989 0.842826 1.3317 0
M  V30 1057 C 103.235 0.441099 1.97945 0
M  V30 1058 C 103.568 -0.998024 1.66593 0
M  V30 1059 O 102.843 -1.69839 0.947898 0
M  V30 1060 C 103.126 0.666841 3.53872 0
M  V30 1061 C 102.979 2.15352 3.94897 0
M  V30 1062 C 104.298 0.115544 4.39948 0
M  V30 1063 H 101.417 0.161739 0.719034 0
M  V30 1064 H 104.059 1.05907 1.57746 0
M  V30 1065 H 102.209 0.140828 3.88245 0
M  V30 1066 H 103.881 2.7447 3.70761 0
M  V30 1067 H 102.124 2.63653 3.44484 0
M  V30 1068 H 102.795 2.26221 5.03516 0
M  V30 1069 H 105.271 0.565213 4.12243 0
M  V30 1070 H 104.147 0.303152 5.48062 0
M  V30 1071 H 104.408 -0.980935 4.3108 0
M  V30 1072 N 103.467 -1.45747 0.599634 0
M  V30 1073 C 104.43 -2.28917 -0.113835 0
M  V30 1074 C 105.43 -1.3933 -0.802729 0
M  V30 1075 O 106.62 -1.61534 -0.652103 0
M  V30 1076 C 103.752 -3.20152 -1.17114 0
M  V30 1077 H 104.945 -2.93478 0.617289 0
M  V30 1078 H 102.498 -1.52137 0.358327 0
M  V30 1079 H 103.233 -2.60374 -1.93329 0
M  V30 1080 H 103.018 -3.86133 -0.681468 0
M  V30 1081 H 104.508 -3.82708 -1.67105 0
M  V30 1082 N 104.945 -0.338344 -1.53925 0
M  V30 1083 C 106.17 0.263987 -2.05713 0
M  V30 1084 C 106.595 1.43847 -1.21201 0
M  V30 1085 O 105.953 1.79904 -0.224535 0
M  V30 1086 C 106.001 0.662 -3.54471 0
M  V30 1087 O 105.105 1.76265 -3.72833 0
M  V30 1088 H 104.446 0.0448722 -0.662482 0
M  V30 1089 H 106.976 -0.491048 -1.9862 0
M  V30 1090 H 106.986 0.940594 -3.9701 0
M  V30 1091 H 105.661 -0.196937 -4.15433 0
M  V30 1092 H 104.238 1.48173 -3.42198 0
M  V30 1093 N 106.423 1.57458 -0.0668435 0
M  V30 1094 C 107.834 1.80776 0.466558 0
M  V30 1095 C 108.185 0.980361 1.69951 0
M  V30 1096 O 107.31 0.201441 2.1546 0
M  V30 1097 C 107.905 3.27881 0.85321 0
M  V30 1098 C 106.464 3.52062 1.3315 0
M  V30 1099 C 105.611 2.75513 0.314264 0
M  V30 1100 H 108.562 1.5598 -0.292588 0
M  V30 1101 H 108.583 3.39659 1.715 0
M  V30 1102 H 108.095 3.88075 -0.0443439 0
M  V30 1103 H 106.196 2.97167 2.24772 0
M  V30 1104 H 106.309 4.60762 1.31285 0
M  V30 1105 H 104.673 2.42123 0.790492 0
M  V30 1106 H 105.456 3.38442 -0.575477 0
M  V30 1107 N 107.901 -0.206675 1.56239 0
M  V30 1108 C 109.149 -0.927007 1.79586 0
M  V30 1109 C 109.47 -1.8427 0.637929 0
M  V30 1110 O 108.74 -1.92849 -0.344398 0
M  V30 1111 H 107.32 -0.345292 0.662407 0
M  V30 1112 H 109.982 -0.21496 1.93711 0
M  V30 1113 H 109.078 -1.52501 2.72305 0
M  V30 1114 N 109.379 -1.50304 -0.473955 0
M  V30 1115 C 110.628 -1.60392 -1.22301 0
M  V30 1116 C 110.941 -0.308411 -1.93153 0
M  V30 1117 O 112.147 -0.288156 -2.69966 0
M  V30 1118 C 110.603 -2.83109 -2.2221 0
M  V30 1119 C 110.211 -4.19524 -1.57173 0
M  V30 1120 C 111.955 -3.0254 -2.97775 0
M  V30 1121 C 109.862 -5.33431 -2.55353 0
M  V30 1122 H 108.792 -0.597286 -0.460179 0
M  V30 1123 H 111.443 -1.76731 -0.493803 0
M  V30 1124 H 109.825 -2.60322 -2.9841 0
M  V30 1125 H 110.999 -4.52554 -0.867824 0
M  V30 1126 H 109.314 -4.05674 -0.939002 0
M  V30 1127 H 111.911 -3.84811 -3.71248 0
M  V30 1128 H 112.254 -2.14154 -3.56992 0
M  V30 1129 H 112.787 -3.25494 -2.28688 0
M  V30 1130 H 109.526 -6.23962 -2.00878 0
M  V30 1131 H 109.046 -5.04823 -3.23904 0
M  V30 1132 H 110.725 -5.63887 -3.17239 0
M  V30 1133 N 110.857 0.726932 -1.39834 0
M  V30 1134 C 111.82 1.82269 -1.38962 0
M  V30 1135 C 112.82 1.58248 -0.285334 0
M  V30 1136 O 114.01 1.65499 -0.54366 0
M  V30 1137 C 111.142 3.20186 -1.17019 0
M  V30 1138 H 112.335 1.84443 -2.36476 0
M  V30 1139 H 109.888 0.931416 -1.25516 0
M  V30 1140 H 110.623 3.23669 -0.202204 0
M  V30 1141 H 110.408 3.3902 -1.96998 0
M  V30 1142 H 111.898 4.00235 -1.1917 0
M  V30 1143 N 112.336 1.25143 0.95797 0
M  V30 1144 C 113.266 1.07711 2.07173 0
M  V30 1145 C 114.247 -0.0128462 1.70095 0
M  V30 1146 O 115.432 0.156061 1.93572 0
M  V30 1147 C 112.562 0.691503 3.40346 0
M  V30 1148 C 111.516 1.73132 3.9142 0
M  V30 1149 C 110.842 1.20049 5.21049 0
M  V30 1150 C 112.142 3.1294 4.1817 0
M  V30 1151 H 113.836 2.00873 2.22014 0
M  V30 1152 H 111.382 0.967191 1.06684 0
M  V30 1153 H 113.335 0.556505 4.17709 0
M  V30 1154 H 112.059 -0.275819 3.25433 0
M  V30 1155 H 110.718 1.8547 3.16222 0
M  V30 1156 H 110.366 0.223499 5.02503 0
M  V30 1157 H 110.066 1.89545 5.56189 0
M  V30 1158 H 111.59 1.07782 6.01012 0
M  V30 1159 H 113.004 3.03775 4.86203 0
M  V30 1160 H 111.401 3.79875 4.64559 0
M  V30 1161 H 112.471 3.6025 3.24573 0
M  V30 1162 N 113.814 -1.1601 1.06675 0
M  V30 1163 C 114.777 -2.18724 0.685001 0
M  V30 1164 C 115.777 -1.58496 -0.271246 0
M  V30 1165 O 116.967 -1.74119 -0.0531156 0
M  V30 1166 C 114.099 -3.40899 0.00853648 0
M  V30 1167 H 115.292 -2.54011 1.59431 0
M  V30 1168 H 112.845 -1.30352 0.862441 0
M  V30 1169 H 113.58 -3.11173 -0.913337 0
M  V30 1170 H 113.365 -3.8587 0.696204 0
M  V30 1171 H 114.855 -4.16886 -0.24414 0
M  V30 1172 N 115.292 -0.849877 -1.32721 0
M  V30 1173 C 116.242 -0.262892 -2.26479 0
M  V30 1174 C 117.226 0.588493 -1.49752 0
M  V30 1175 O 118.418 0.438659 -1.71478 0
M  V30 1176 C 115.547 0.551818 -3.38836 0
M  V30 1177 C 114.633 -0.311689 -4.22953 0
M  V30 1178 N 115.024 -1.39567 -4.86163 0
M  V30 1179 C 113.322 -0.100611 -4.45887 0
M  V30 1180 C 114.023 -1.92651 -5.48872 0
M  V30 1181 N 112.999 -1.22637 -5.29586 0
M  V30 1182 H 116.801 -1.09166 -2.72873 0
M  V30 1183 H 114.315 -0.695486 -1.46754 0
M  V30 1184 H 116.312 0.988713 -4.05006 0
M  V30 1185 H 114.972 1.37844 -2.93988 0
M  V30 1186 H 115.983 -1.77859 -4.86402 0
M  V30 1187 H 112.66 0.691681 -4.11731 0
M  V30 1188 H 114.05 -2.83487 -6.09167 0
M  V30 1189 N 116.77 1.45427 -0.607355 0
M  V30 1190 C 118.181 1.85756 -0.187535 0
M  V30 1191 C 118.532 1.5077 1.25551 0
M  V30 1192 O 117.657 0.93427 1.95193 0
M  V30 1193 C 118.252 3.37154 -0.333572 0
M  V30 1194 C 116.811 3.76387 0.0315542 0
M  V30 1195 C 115.958 2.69377 -0.658117 0
M  V30 1196 H 118.909 1.36231 -0.81405 0
M  V30 1197 H 118.93 3.78014 0.43428 0
M  V30 1198 H 118.442 3.62586 -1.38393 0
M  V30 1199 H 116.543 3.56571 1.0811 0
M  V30 1200 H 116.656 4.77731 -0.361935 0
M  V30 1201 H 115.02 2.5452 -0.0957873 0
M  V30 1202 H 115.803 2.97646 -1.7106 0
M  V30 1203 N 118.248 0.346503 1.53744 0
M  V30 1204 C 119.473 -0.253074 2.0585 0
M  V30 1205 C 119.898 -1.43202 1.21962 0
M  V30 1206 O 119.256 -1.79783 0.234073 0
M  V30 1207 C 119.304 -0.643193 3.54817 0
M  V30 1208 O 118.408 -1.74286 3.73762 0
M  V30 1209 H 117.749 -0.0413583 0.662711 0
M  V30 1210 H 120.279 0.501574 1.98357 0
M  V30 1211 H 120.289 -0.919526 3.97503 0
M  V30 1212 H 118.964 0.218966 4.15323 0
M  V30 1213 H 117.541 -1.46356 3.42979 0
M  V30 1214 N 119.726 -1.57421 0.075193 0
M  V30 1215 C 120.656 -2.15942 -0.888324 0
M  V30 1216 C 121.637 -1.08737 -1.30806 0
M  V30 1217 O 122.822 -1.36787 -1.37851 0
M  V30 1218 C 119.952 -2.72379 -2.1547 0
M  V30 1219 C 118.906 -3.8478 -1.87425 0
M  V30 1220 C 118.232 -4.27834 -3.20721 0
M  V30 1221 C 119.532 -5.08869 -1.17684 0
M  V30 1222 H 121.226 -2.96705 -0.400799 0
M  V30 1223 H 118.772 -1.42723 -0.191342 0
M  V30 1224 H 120.725 -3.11965 -2.83295 0
M  V30 1225 H 119.449 -1.88841 -2.6647 0
M  V30 1226 H 118.108 -3.45703 -1.22004 0
M  V30 1227 H 117.756 -3.41214 -3.6957 0
M  V30 1228 H 117.456 -5.03605 -3.02746 0
M  V30 1229 H 118.98 -4.70039 -3.89738 0
M  V30 1230 H 120.394 -5.4575 -1.75584 0
M  V30 1231 H 118.791 -5.8994 -1.09956 0
M  V30 1232 H 119.861 -4.84648 -0.156453 0
M  V30 1233 N 121.204 0.198386 -1.56346 0
M  V30 1234 C 122.429 0.939682 -1.84891 0
M  V30 1235 C 122.854 1.76202 -0.658369 0
M  V30 1236 O 122.212 1.76993 0.392851 0
M  V30 1237 C 122.26 1.81428 -3.11635 0
M  V30 1238 O 121.364 2.91265 -2.91956 0
M  V30 1239 H 120.705 0.264807 -0.608912 0
M  V30 1240 H 123.235 0.204695 -2.03573 0
M  V30 1241 H 123.245 2.21958 -3.42343 0
M  V30 1242 H 121.92 1.21004 -3.97908 0
M  V30 1243 H 120.497 2.54514 -2.72538 0
M  V30 1244 N 122.682 1.50554 0.465978 0
M  V30 1245 C 123.645 1.69233 1.54574 0
M  V30 1246 C 124.645 0.562901 1.50626 0
M  V30 1247 O 125.835 0.830016 1.53155 0
M  V30 1248 C 122.967 1.7223 2.94193 0
M  V30 1249 H 124.16 2.65571 1.39327 0
M  V30 1250 H 121.713 1.40111 0.692711 0
M  V30 1251 H 122.448 0.77603 3.14878 0
M  V30 1252 H 122.233 2.54285 2.98466 0
M  V30 1253 H 123.723 1.88618 3.72576 0
M  V30 1254 N 124.16 -0.719506 1.40217 0
M  V30 1255 C 125.123 -1.8153 1.39927 0
M  V30 1256 C 126.123 -1.58095 0.293723 0
M  V30 1257 O 127.313 -1.65209 0.552429 0
M  V30 1258 C 124.445 -3.19561 1.18716 0
M  V30 1259 H 125.638 -1.83186 2.37451 0
M  V30 1260 H 123.191 -0.924746 1.26008 0
M  V30 1261 H 123.926 -3.23557 0.219366 0
M  V30 1262 H 123.711 -3.3797 1.98793 0
M  V30 1263 H 125.201 -3.99598 1.21291 0
M  V30 1264 N 125.638 -1.25649 -0.95132 0
M  V30 1265 C 126.601 -1.06399 -2.03007 0
M  V30 1266 C 127.601 -0.0156794 -1.60792 0
M  V30 1267 O 128.791 -0.25817 -1.72276 0
M  V30 1268 C 125.923 -0.616184 -3.35285 0
M  V30 1269 H 127.116 -2.02164 -2.21517 0
M  V30 1270 H 124.669 -1.08103 -1.12887 0
M  V30 1271 H 125.404 0.343917 -3.22471 0
M  V30 1272 H 125.189 -1.37301 -3.67275 0
M  V30 1273 H 126.679 -0.503032 -4.14559 0
M  V30 1274 N 127.117 1.15442 -1.07289 0
M  V30 1275 C 128.394 1.82306 -0.708792 0
M  V30 1276 C 128.774 1.94991 0.808807 0
M  V30 1277 O 128.122 1.50085 1.72298 0
M  V30 1278 C 128.332 3.18695 -1.42247 0
M  V30 1279 C 129.68 3.94341 -1.57417 0
M  V30 1280 O 130.704 3.28247 -1.38319 0
M  V30 1281 O 129.563 5.12839 -1.88834 0
M  V30 1282 H 126.657 0.787628 -0.252132 0
M  V30 1283 H 129.203 1.22559 -1.17377 0
M  V30 1284 H 127.975 3.04557 -2.45684 0
M  V30 1285 H 127.598 3.86128 -0.948223 0
M  V30 1286 N 128.595 0.856903 1.32268 0
M  V30 1287 C 129.558 0.308171 2.27119 0
M  V30 1288 C 130.558 -0.533421 1.51695 0
M  V30 1289 O 131.748 -0.344607 1.70757 0
M  V30 1290 C 128.88 -0.563757 3.36206 0
M  V30 1291 H 130.073 1.14535 2.77167 0
M  V30 1292 H 127.626 0.631421 1.42978 0
M  V30 1293 H 128.361 -1.42266 2.91429 0
M  V30 1294 H 128.146 0.0386749 3.92081 0
M  V30 1295 H 129.636 -0.940386 4.06874 0
M  V30 1296 N 130.073 -1.45103 0.615059 0
M  V30 1297 C 131.321 -2.01784 0.112955 0
M  V30 1298 C 131.642 -1.48504 -1.26378 0
M  V30 1299 O 130.912 -0.682245 -1.83636 0
M  V30 1300 H 129.492 -0.745993 0.0387668 0
M  V30 1301 H 132.154 -1.77808 0.798141 0
M  V30 1302 H 131.25 -3.12025 0.0684069 0
M  V30 1303 N 131.551 -0.354651 -1.53558 0
M  V30 1304 C 132.8 0.239504 -2.00273 0
M  V30 1305 C 133.113 1.50759 -1.24623 0
M  V30 1306 O 134.319 2.17968 -1.61871 0
M  V30 1307 C 132.775 0.477341 -3.5672 0
M  V30 1308 C 132.383 -0.775488 -4.41237 0
M  V30 1309 C 134.127 1.02975 -4.11821 0
M  V30 1310 C 132.034 -0.507838 -5.89216 0
M  V30 1311 H 130.964 0.0932743 -0.748208 0
M  V30 1312 H 133.615 -0.471701 -1.77334 0
M  V30 1313 H 131.997 1.24953 -3.7577 0
M  V30 1314 H 133.171 -1.54963 -4.33962 0
M  V30 1315 H 131.486 -1.25033 -3.97185 0
M  V30 1316 H 134.083 1.24513 -5.2 0
M  V30 1317 H 134.426 1.98862 -3.65731 0
M  V30 1318 H 134.959 0.317994 -3.96527 0
M  V30 1319 H 131.698 -1.43674 -6.39561 0
M  V30 1320 H 131.218 0.228011 -5.99366 0
M  V30 1321 H 132.897 -0.129238 -6.46871 0
M  V30 1322 N 133.029 1.57378 -0.0835403 0
M  V30 1323 C 133.939 2.16897 0.894021 0
M  V30 1324 C 134.955 1.13528 1.31861 0
M  V30 1325 O 136.131 1.45848 1.3889 0
M  V30 1326 C 133.196 2.72831 2.13925 0
M  V30 1327 C 132.257 3.91115 1.76997 0
M  V30 1328 C 131.49 4.44371 2.95584 0
M  V30 1329 O 131.713 3.96596 4.09961 0
M  V30 1330 O 130.647 5.35549 2.74719 0
M  V30 1331 H 134.473 3.00814 0.417679 0
M  V30 1332 H 132.058 1.48741 0.140181 0
M  V30 1333 H 133.94 3.0863 2.86924 0
M  V30 1334 H 132.615 1.91967 2.60635 0
M  V30 1335 H 131.522 3.60148 1.01214 0
M  V30 1336 H 132.855 4.73307 1.3506 0
M  V30 1337 N 134.507 -0.190092 1.56449 0
M  V30 1338 C 135.756 -0.907912 1.80111 0
M  V30 1339 C 136.069 -1.84214 0.657619 0
M  V30 1340 O 137.275 -2.60094 0.778663 0
M  V30 1341 C 135.731 -1.66485 3.19078 0
M  V30 1342 C 135.339 -0.7752 4.41242 0
M  V30 1343 C 137.083 -2.37201 3.52045 0
M  V30 1344 C 134.99 -1.53129 5.71231 0
M  V30 1345 H 133.92 -0.34276 0.671589 0
M  V30 1346 H 136.571 -0.161109 1.82791 0
M  V30 1347 H 134.953 -2.45572 3.10661 0
M  V30 1348 H 136.127 -0.0226298 4.60794 0
M  V30 1349 H 134.442 -0.178627 4.16017 0
M  V30 1350 H 137.039 -2.94329 4.46402 0
M  V30 1351 H 137.382 -3.11632 2.76028 0
M  V30 1352 H 137.915 -1.65075 3.61932 0
M  V30 1353 H 134.654 -0.82967 6.50228 0
M  V30 1354 H 134.174 -2.25767 5.55688 0
M  V30 1355 H 135.853 -2.08377 6.12526 0
M  V30 1356 N 135.985 -1.50799 -0.457987 0
M  V30 1357 C 137.231 -1.62683 -1.21088 0
M  V30 1358 C 137.564 -0.332268 -1.91336 0
M  V30 1359 O 136.839 0.667043 -1.82704 0
M  V30 1360 C 137.122 -2.81615 -2.24422 0
M  V30 1361 C 136.975 -4.20989 -1.58392 0
M  V30 1362 C 138.294 -2.96085 -3.2561 0
M  V30 1363 H 135.413 -0.592087 -0.438864 0
M  V30 1364 H 138.055 -1.83225 -0.50286 0
M  V30 1365 H 136.205 -2.64231 -2.84806 0
M  V30 1366 H 137.877 -4.49994 -1.01504 0
M  V30 1367 H 136.12 -4.24641 -0.886704 0
M  V30 1368 H 136.791 -5.0016 -2.33547 0
M  V30 1369 H 139.267 -3.12042 -2.75262 0
M  V30 1370 H 138.143 -3.80902 -3.95228 0
M  V30 1371 H 138.404 -2.0726 -3.90507 0
M  V30 1372 N 137.463 0.71206 -1.40597 0
M  V30 1373 C 138.711 1.46907 -1.38791 0
M  V30 1374 C 139.032 1.94998 0.00780391 0
M  V30 1375 O 138.302 1.70587 0.963174 0
M  V30 1376 H 136.882 0.545043 -0.51082 0
M  V30 1377 H 139.544 0.843882 -1.75683 0
M  V30 1378 H 138.64 2.34021 -2.06496 0
M  V30 1379 N 138.941 1.26152 0.944643 0
M  V30 1380 C 140.218 1.02247 1.66748 0
M  V30 1381 C 140.598 -0.448202 2.06287 0
M  V30 1382 O 139.946 -1.42779 1.78399 0
M  V30 1383 C 140.156 1.96788 2.88228 0
M  V30 1384 C 141.504 2.25201 3.59958 0
M  V30 1385 O 142.528 1.94626 2.98327 0
M  V30 1386 O 141.387 2.77242 4.70956 0
M  V30 1387 H 138.481 0.388517 0.730057 0
M  V30 1388 H 141.027 1.37348 0.99668 0
M  V30 1389 H 139.799 2.96047 2.55875 0
M  V30 1390 H 139.422 1.62145 3.63035 0
M  V30 1391 N 140.419 -1.14872 1.07899 0
M  V30 1392 C 141.668 -1.85135 0.800499 0
M  V30 1393 C 141.981 -1.83547 -0.676014 0
M  V30 1394 O 143.187 -2.49548 -1.06948 0
M  V30 1395 C 141.643 -3.3231 1.38197 0
M  V30 1396 C 141.251 -3.42329 2.8899 0
M  V30 1397 C 142.995 -4.0772 1.18174 0
M  V30 1398 C 140.902 -4.83684 3.403 0
M  V30 1399 H 139.832 -0.693563 0.29578 0
M  V30 1400 H 142.483 -1.29532 1.29976 0
M  V30 1401 H 140.865 -3.87618 0.810431 0
M  V30 1402 H 142.039 -2.97097 3.52236 0
M  V30 1403 H 140.354 -2.80369 3.07867 0
M  V30 1404 H 142.951 -5.12049 1.5398 0
M  V30 1405 H 143.294 -4.16124 0.12117 0
M  V30 1406 H 143.827 -3.58696 1.71994 0
M  V30 1407 H 140.566 -4.80465 4.45907 0
M  V30 1408 H 140.086 -5.29474 2.81811 0
M  V30 1409 H 141.765 -5.52558 3.36584 0
M  V30 1410 N 141.898 -0.863906 -1.31812 0
M  V30 1411 C 142.808 -0.318461 -2.32428 0
M  V30 1412 C 143.824 0.568496 -1.64451 0
M  V30 1413 O 145 0.46666 -1.95919 0
M  V30 1414 C 142.065 0.476355 -3.43412 0
M  V30 1415 C 141.126 -0.43784 -4.27061 0
M  V30 1416 C 140.359 0.319138 -5.32745 0
M  V30 1417 O 140.582 1.54799 -5.48993 0
M  V30 1418 O 139.516 -0.319861 -6.01049 0
M  V30 1419 H 143.342 -1.15229 -2.80991 0
M  V30 1420 H 140.927 -0.627103 -1.35602 0
M  V30 1421 H 142.809 0.927156 -4.11074 0
M  V30 1422 H 141.484 1.28683 -2.97022 0
M  V30 1423 H 140.391 -0.937013 -3.62175 0
M  V30 1424 H 141.724 -1.21375 -4.77 0
M  V30 1425 N 143.376 1.44774 -0.622745 0
M  V30 1426 C 144.306 2.33382 0.0741861 0
M  V30 1427 C 145.287 1.47719 0.843387 0
M  V30 1428 O 146.472 1.76458 0.810934 0
M  V30 1429 C 143.602 3.30663 1.06204 0
M  V30 1430 C 142.556 4.26079 0.405037 0
M  V30 1431 C 141.882 5.13165 1.5022 0
M  V30 1432 C 143.182 5.1781 -0.683414 0
M  V30 1433 H 144.876 2.91905 -0.665713 0
M  V30 1434 H 142.422 1.40363 -0.321587 0
M  V30 1435 H 144.375 3.9153 1.55827 0
M  V30 1436 H 143.099 2.70331 1.83272 0
M  V30 1437 H 141.758 3.66532 -0.0704683 0
M  V30 1438 H 141.406 4.49191 2.26355 0
M  V30 1439 H 141.106 5.77812 1.06803 0
M  V30 1440 H 142.63 5.76902 2.00041 0
M  V30 1441 H 144.044 5.72661 -0.270631 0
M  V30 1442 H 142.441 5.91015 -1.04023 0
M  V30 1443 H 143.511 4.59326 -1.55395 0
M  V30 1444 N 144.854 0.36279 1.53368 0
M  V30 1445 C 146.101 -0.227776 2.01215 0
M  V30 1446 C 146.429 -1.49003 1.25014 0
M  V30 1447 O 145.684 -1.92876 0.331236 0
M  V30 1448 C 145.983 -0.568417 3.52851 0
M  V30 1449 C 145.649 0.59918 4.46901 0
M  V30 1450 C 144.311 0.919559 4.72332 0
M  V30 1451 C 146.663 1.38156 5.02556 0
M  V30 1452 C 143.991 2.02434 5.5067 0
M  V30 1453 C 146.343 2.47674 5.821 0
M  V30 1454 C 145.007 2.8025 6.05819 0
M  V30 1455 H 144.277 -0.083349 0.736297 0
M  V30 1456 H 146.924 0.494677 1.85001 0
M  V30 1457 H 145.229 -1.37185 3.66998 0
M  V30 1458 H 146.926 -1.03756 3.87344 0
M  V30 1459 H 143.516 0.339437 4.27254 0
M  V30 1460 H 147.7 1.14729 4.82857 0
M  V30 1461 H 142.956 2.28075 5.67267 0
M  V30 1462 H 147.13 3.08716 6.24234 0
M  V30 1463 H 144.757 3.65979 6.66306 0
M  V30 1464 N 146.332 -1.57332 0.0918853 0
M  V30 1465 C 147.572 -1.96117 -0.575988 0
M  V30 1466 C 147.936 -0.972499 -1.65549 0
M  V30 1467 O 149.137 -1.24872 -2.38034 0
M  V30 1468 C 147.408 -3.39407 -1.11973 0
M  V30 1469 S 148.967 -4.00185 -1.79992 0
M  V30 1470 H 145.785 -0.685682 -0.188045 0
M  V30 1471 H 148.387 -1.94755 0.170525 0
M  V30 1472 H 147.091 -4.09131 -0.322504 0
M  V30 1473 H 146.622 -3.44358 -1.90214 0
M  V30 1474 H 148.637 -3.88728 -3.08391 0
M  V30 1475 N 147.81 0.181792 -1.56548 0
M  V30 1476 C 149.226 0.53316 -1.50431 0
M  V30 1477 C 149.426 1.85184 -0.794297 0
M  V30 1478 O 148.482 2.50058 -0.350318 0
M  V30 1479 C 149.795 0.575597 -2.9514 0
M  V30 1480 C 151.343 0.663519 -3.05886 0
M  V30 1481 C 151.818 0.736946 -4.52032 0
M  V30 1482 N 153.309 0.800118 -4.56237 0
M  V30 1483 C 154.044 0.877327 -5.66649 0
M  V30 1484 N 153.54 0.916016 -6.86718 0
M  V30 1485 N 155.333 0.915542 -5.54594 0
M  V30 1486 H 147.484 -0.683025 -2.01118 0
M  V30 1487 H 149.747 -0.244988 -0.915797 0
M  V30 1488 H 149.453 -0.324482 -3.502 0
M  V30 1489 H 149.327 1.42572 -3.49218 0
M  V30 1490 H 151.714 1.55403 -2.50867 0
M  V30 1491 H 151.795 -0.21307 -2.54911 0
M  V30 1492 H 151.439 -0.149262 -5.07681 0
M  V30 1493 H 151.369 1.62953 -5.00753 0
M  V30 1494 H 153.86 0.778926 -3.69785 0
M  V30 1495 H 154.173 0.975813 -7.66614 0
M  V30 1496 H 152.518 0.884469 -6.89349 0
M  V30 1497 H 155.709 0.882245 -4.59711 0
M  V30 1498 H 155.882 0.972253 -6.40665 0
M  V30 1499 N 149.288 1.51039 0.449983 0
M  V30 1500 C 150.198 1.74261 1.57067 0
M  V30 1501 C 151.214 0.626363 1.62335 0
M  V30 1502 O 152.39 0.907162 1.79812 0
M  V30 1503 C 149.455 1.85114 2.93144 0
M  V30 1504 C 148.516 3.0893 2.98095 0
M  V30 1505 C 147.749 3.19256 4.27681 0
M  V30 1506 O 147.972 2.35835 5.19363 0
M  V30 1507 O 146.906 4.12144 4.38658 0
M  V30 1508 H 150.732 2.69303 1.40391 0
M  V30 1509 H 148.317 1.35389 0.631688 0
M  V30 1510 H 150.199 1.94311 3.73926 0
M  V30 1511 H 148.874 0.932588 3.09975 0
M  V30 1512 H 147.781 3.0522 2.16314 0
M  V30 1513 H 149.114 4.00433 2.86206 0
M  V30 1514 N 150.766 -0.704594 1.40972 0
M  V30 1515 C 151.729 -1.80035 1.41845 0
M  V30 1516 C 152.729 -1.57774 0.310474 0
M  V30 1517 O 153.919 -1.64613 0.56992 0
M  V30 1518 C 151.051 -3.18284 1.22098 0
M  V30 1519 H 152.244 -1.80658 2.3938 0
M  V30 1520 H 149.797 -0.911329 1.26982 0
M  V30 1521 H 150.532 -3.23306 0.253672 0
M  V30 1522 H 150.317 -3.35843 2.02366 0
M  V30 1523 H 151.807 -3.98289 1.25522 0
M  V30 1524 N 152.244 -1.26651 -0.937939 0
M  V30 1525 C 153.176 -1.04283 -2.04102 0
M  V30 1526 C 154.189 -0.00221014 -1.628 0
M  V30 1527 O 155.378 -0.242645 -1.76843 0
M  V30 1528 C 152.478 -0.557846 -3.34277 0
M  V30 1529 C 151.651 -1.66843 -4.04329 0
M  V30 1530 C 150.71 -1.18095 -5.12777 0
M  V30 1531 O 149.736 -1.87865 -5.37304 0
M  V30 1532 N 150.938 -0.0311006 -5.80492 0
M  V30 1533 H 153.703 -1.9927 -2.23856 0
M  V30 1534 H 151.264 -1.1808 -1.10764 0
M  V30 1535 H 153.256 -0.215836 -4.04124 0
M  V30 1536 H 151.826 0.298523 -3.11171 0
M  V30 1537 H 151.046 -2.18123 -3.28353 0
M  V30 1538 H 152.334 -2.41408 -4.47883 0
M  V30 1539 H 151.732 0.551486 -5.63005 0
M  V30 1540 H 150.289 0.251809 -6.51313 0
M  V30 1541 N 153.722 1.14298 -1.08507 0
M  V30 1542 C 154.685 2.17607 -0.719711 0
M  V30 1543 C 155.685 1.58907 0.245997 0
M  V30 1544 O 156.875 1.74181 0.0254081 0
M  V30 1545 C 154.007 3.40842 -0.0627695 0
M  V30 1546 H 155.2 2.51443 -1.63452 0
M  V30 1547 H 152.753 1.28963 -0.88307 0
M  V30 1548 H 153.488 3.12587 0.863716 0
M  V30 1549 H 153.273 3.84713 -0.757504 0
M  V30 1550 H 154.763 4.17221 0.177786 0
M  V30 1551 N 155.201 0.870884 1.31352 0
M  V30 1552 C 156.612 0.534714 1.78879 0
M  V30 1553 C 156.963 -0.948423 1.71754 0
M  V30 1554 O 156.088 -1.74055 1.28584 0
M  V30 1555 C 156.683 0.963839 3.24801 0
M  V30 1556 C 155.242 0.679311 3.70219 0
M  V30 1557 C 154.389 1.15465 2.52117 0
M  V30 1558 H 157.34 1.05651 1.18421 0
M  V30 1559 H 157.361 0.286892 3.79417 0
M  V30 1560 H 156.873 2.04332 3.29955 0
M  V30 1561 H 154.974 -0.388769 3.70566 0
M  V30 1562 H 155.087 1.25698 4.62317 0
M  V30 1563 H 153.451 0.574383 2.48139 0
M  V30 1564 H 154.234 2.24157 2.60016 0
M  V30 1565 N 156.679 -1.44442 0.630414 0
M  V30 1566 C 157.928 -2.01267 0.132073 0
M  V30 1567 C 158.241 -1.50172 -1.25331 0
M  V30 1568 O 159.447 -1.9912 -1.84562 0
M  V30 1569 C 157.903 -3.59422 0.185362 0
M  V30 1570 C 157.511 -4.19514 1.57201 0
M  V30 1571 C 159.255 -4.23724 -0.256553 0
M  V30 1572 C 157.162 -5.69891 1.58045 0
M  V30 1573 H 156.092 -0.752619 0.0456092 0
M  V30 1574 H 158.743 -1.65666 0.789106 0
M  V30 1575 H 157.125 -3.92318 -0.538759 0
M  V30 1576 H 158.299 -3.98156 2.31966 0
M  V30 1577 H 156.614 -3.67496 1.95795 0
M  V30 1578 H 159.211 -5.34019 -0.269767 0
M  V30 1579 H 159.554 -3.96013 -1.28372 0
M  V30 1580 H 160.087 -3.95629 0.41505 0
M  V30 1581 H 156.826 -6.02336 2.58597 0
M  V30 1582 H 156.346 -5.93373 0.875725 0
M  V30 1583 H 158.025 -6.33515 1.31408 0
M  V30 1584 N 158.157 -0.370918 -1.53173 0
M  V30 1585 C 159.403 0.217423 -2.01631 0
M  V30 1586 C 159.736 1.47983 -1.25756 0
M  V30 1587 O 159.011 1.91274 -0.352764 0
M  V30 1588 C 159.294 0.503982 -3.56556 0
M  V30 1589 C 159.147 -0.77243 -4.43118 0
M  V30 1590 C 160.466 1.30234 -4.20389 0
M  V30 1591 H 157.585 0.0775486 -0.732909 0
M  V30 1592 H 160.227 -0.496863 -1.83388 0
M  V30 1593 H 158.377 1.11248 -3.72231 0
M  V30 1594 H 160.049 -1.4098 -4.39229 0
M  V30 1595 H 158.292 -1.39167 -4.10871 0
M  V30 1596 H 158.963 -0.526815 -5.4948 0
M  V30 1597 H 161.439 0.787546 -4.08579 0
M  V30 1598 H 160.315 1.47158 -5.28806 0
M  V30 1599 H 160.576 2.31237 -3.76805 0
M  V30 1600 N 159.635 1.57281 -0.100228 0
M  V30 1601 C 160.598 2.13158 0.842398 0
M  V30 1602 C 161.598 1.06202 1.20738 0
M  V30 1603 O 162.788 1.32066 1.13597 0
M  V30 1604 C 159.92 2.65639 2.13655 0
M  V30 1605 H 161.113 2.97766 0.357114 0
M  V30 1606 H 158.666 1.5559 0.148823 0
M  V30 1607 H 159.401 1.84566 2.66657 0
M  V30 1608 H 159.186 3.43844 1.88451 0
M  V30 1609 H 160.676 3.08846 2.81077 0
M  V30 1610 N 161.113 -0.173488 1.56642 0
M  V30 1611 C 162.362 -0.888758 1.81063 0
M  V30 1612 C 162.675 -1.83506 0.67712 0
M  V30 1613 O 163.881 -2.59254 0.806206 0
M  V30 1614 C 162.337 -1.63091 3.20826 0
M  V30 1615 C 161.945 -0.728357 4.4204 0
M  V30 1616 C 163.689 -2.33454 3.54541 0
M  V30 1617 C 161.596 -1.47062 5.72823 0
M  V30 1618 H 160.526 -0.335618 0.675186 0
M  V30 1619 H 163.177 -0.141712 1.82952 0
M  V30 1620 H 161.559 -2.42263 3.13248 0
M  V30 1621 H 162.733 0.0262449 4.60793 0
M  V30 1622 H 161.048 -0.134492 4.16183 0
M  V30 1623 H 163.645 -2.89578 4.49498 0
M  V30 1624 H 163.988 -3.08687 2.79317 0
M  V30 1625 H 164.521 -1.61227 3.63663 0
M  V30 1626 H 161.26 -0.760658 6.51072 0
M  V30 1627 H 160.78 -2.1986 5.58052 0
M  V30 1628 H 162.459 -2.01868 6.14702 0
M  V30 1629 N 162.591 -1.51276 -0.441967 0
M  V30 1630 C 163.819 -1.67516 -1.21434 0
M  V30 1631 C 164.234 -0.37055 -1.85128 0
M  V30 1632 O 163.591 0.650498 -1.70513 0
M  V30 1633 C 163.642 -2.78748 -2.30177 0
M  V30 1634 O 163.363 -4.04154 -1.69089 0
M  V30 1635 C 164.864 -3.06217 -3.20541 0
M  V30 1636 H 162.084 -0.562276 -0.366178 0
M  V30 1637 H 164.628 -1.97666 -0.524244 0
M  V30 1638 H 162.783 -2.5121 -2.94911 0
M  V30 1639 H 163.197 -4.65894 -2.40922 0
M  V30 1640 H 164.671 -3.8764 -3.92987 0
M  V30 1641 H 165.148 -2.18439 -3.81026 0
M  V30 1642 H 165.754 -3.35397 -2.61513 0
M  V30 1643 N 164.069 0.697108 -1.41344 0
M  V30 1644 C 165.317 1.45426 -1.40341 0
M  V30 1645 C 165.638 1.94996 -0.0128787 0
M  V30 1646 O 164.908 1.71599 0.945027 0
M  V30 1647 H 163.488 0.539594 -0.516573 0
M  V30 1648 H 166.15 0.825201 -1.76569 0
M  V30 1649 H 165.246 2.31817 -2.08967 0
M  V30 1650 N 165.547 1.27147 0.931209 0
M  V30 1651 C 166.772 1.16191 1.71797 0
M  V30 1652 C 167.197 -0.278004 1.86034 0
M  V30 1653 O 166.555 -1.20137 1.35782 0
M  V30 1654 C 166.603 1.84673 3.09723 0
M  V30 1655 O 165.707 1.14231 3.96264 0
M  V30 1656 H 165.048 0.404303 0.526721 0
M  V30 1657 H 167.578 1.68152 1.1656 0
M  V30 1658 H 167.588 1.91893 3.60057 0
M  V30 1659 H 166.263 2.89421 2.98677 0
M  V30 1660 H 164.84 1.15056 3.54706 0
M  V30 1661 N 167.025 -1.13721 1.09112 0
M  V30 1662 C 167.973 -2.21103 0.722219 0
M  V30 1663 C 168.967 -1.67147 -0.275374 0
M  V30 1664 O 170.173 -1.79477 -0.137176 0
M  V30 1665 H 166.548 -0.720445 0.215553 0
M  V30 1666 H 168.519 -2.49483 1.63709 0
M  V30 1667 C 167.268 -3.47352 0.15543 0
M  V30 1668 H 166.591 -3.89206 0.914246 0
M  V30 1669 H 168.031 -4.2395 -0.0647967 0
M  V30 1670 C 166.49 -3.1814 -1.10852 0
M  V30 1671 O 167.02 -3.36604 -2.19227 0
M  V30 1672 N 165.226 -2.72045 -1.02176 0
M  V30 1673 H 164.773 -2.57221 -0.139764 0
M  V30 1674 H 164.731 -2.52875 -1.8682 0
M  V30 1675 N 168.503 -0.877838 -1.30888 0
M  V30 1676 C 169.751 -0.491723 -1.96027 0
M  V30 1677 C 170.072 0.960827 -1.69685 0
M  V30 1678 O 169.342 1.67462 -1.01654 0
M  V30 1679 H 167.922 -0.17885 -0.725273 0
M  V30 1680 H 170.584 -1.11935 -1.59551 0
M  V30 1681 H 169.68 -0.656016 -3.05128 0
M  V30 1682 N 169.982 1.44106 -0.638065 0
M  V30 1683 C 170.929 2.30715 0.062701 0
M  V30 1684 C 171.899 1.43882 0.829883 0
M  V30 1685 O 173.084 1.72775 0.809532 0
M  V30 1686 C 170.224 3.29258 1.03358 0
M  V30 1687 C 169.337 4.31192 0.26409 0
M  V30 1688 C 168.472 5.16825 1.22741 0
M  V30 1689 C 167.511 6.10462 0.447475 0
M  V30 1690 N 166.648 6.8877 1.36161 0
M  V30 1691 H 171.488 2.90096 -0.681781 0
M  V30 1692 H 169.025 1.42925 -0.347988 0
M  V30 1693 H 170.983 3.84886 1.60992 0
M  V30 1694 H 169.613 2.71562 1.74511 0
M  V30 1695 H 168.665 3.77981 -0.428295 0
M  V30 1696 H 169.977 4.97619 -0.343052 0
M  V30 1697 H 169.131 5.77004 1.87487 0
M  V30 1698 H 167.87 4.50488 1.86847 0
M  V30 1699 H 166.875 5.49386 -0.213433 0
M  V30 1700 H 168.1 6.78837 -0.188968 0
M  V30 1701 H 166.046 6.25096 1.98975 0
M  V30 1702 H 165.963 7.51663 0.808656 0
M  V30 1703 H 167.231 7.53467 1.99769 0
M  V30 1704 N 171.46 0.379036 1.52974 0
M  V30 1705 C 172.685 -0.209353 2.06341 0
M  V30 1706 C 173.11 -1.40583 1.24972 0
M  V30 1707 O 172.468 -1.79246 0.272155 0
M  V30 1708 C 172.516 -0.567786 3.56102 0
M  V30 1709 O 171.62 -1.66318 3.77375 0
M  V30 1710 H 170.961 -0.0272919 0.663439 0
M  V30 1711 H 173.491 0.543536 1.97248 0
M  V30 1712 H 173.501 -0.835003 3.99364 0
M  V30 1713 H 172.176 0.307013 4.14765 0
M  V30 1714 H 170.753 -1.39048 3.46006 0
M  V30 1715 N 172.938 -1.57226 0.108567 0
M  V30 1716 C 174.166 -1.99179 -0.559954 0
M  V30 1717 C 174.581 -0.988022 -1.60884 0
M  V30 1718 O 173.938 0.0205512 -1.82488 0
M  V30 1719 C 173.989 -3.41159 -1.19552 0
M  V30 1720 O 173.71 -4.37694 -0.188577 0
M  V30 1721 C 175.211 -3.98188 -1.94837 0
M  V30 1722 H 172.431 -0.654228 -0.149088 0
M  V30 1723 H 174.975 -2.03598 0.19183 0
M  V30 1724 H 173.13 -3.37711 -1.89815 0
M  V30 1725 H 173.544 -5.20469 -0.649014 0
M  V30 1726 H 175.018 -4.99644 -2.34648 0
M  V30 1727 H 175.495 -3.3675 -2.81951 0
M  V30 1728 H 176.101 -4.0515 -1.2936 0
M  V30 1729 N 174.416 0.165178 -1.56732 0
M  V30 1730 C 175.662 0.882112 -1.82611 0
M  V30 1731 C 175.995 1.81628 -0.687378 0
M  V30 1732 O 175.27 1.92009 0.310267 0
M  V30 1733 C 175.553 1.67245 -3.18906 0
M  V30 1734 C 175.406 0.760987 -4.43316 0
M  V30 1735 C 176.725 2.63884 -3.52212 0
M  V30 1736 H 173.844 0.319242 -0.664269 0
M  V30 1737 H 176.486 0.148052 -1.89422 0
M  V30 1738 H 174.636 2.29824 -3.1323 0
M  V30 1739 H 176.308 0.147596 -4.61064 0
M  V30 1740 H 174.551 0.0694102 -4.33744 0
M  V30 1741 H 175.222 1.34962 -5.35247 0
M  V30 1742 H 177.698 2.11429 -3.58381 0
M  V30 1743 H 176.574 3.16245 -4.48643 0
M  V30 1744 H 176.835 3.44377 -2.77231 0
M  V30 1745 N 175.894 1.51508 0.433938 0
M  V30 1746 C 177.122 1.68157 1.20543 0
M  V30 1747 C 177.537 0.380362 1.84929 0
M  V30 1748 O 176.894 -0.641446 1.70856 0
M  V30 1749 C 176.945 2.79965 2.28696 0
M  V30 1750 O 176.666 4.05045 1.66943 0
M  V30 1751 C 178.167 3.07912 3.18912 0
M  V30 1752 H 175.387 0.56421 0.363191 0
M  V30 1753 H 177.931 1.97941 0.513754 0
M  V30 1754 H 176.086 2.5277 2.93574 0
M  V30 1755 H 176.5 4.67165 2.38448 0
M  V30 1756 H 177.974 3.89719 3.90926 0
M  V30 1757 H 178.451 2.20456 3.79863 0
M  V30 1758 H 179.057 3.36779 2.59731 0
M  V30 1759 N 177.372 -0.689602 1.41712 0
M  V30 1760 C 178.6 -1.47827 1.44758 0
M  V30 1761 C 179.015 -1.88721 0.0545703 0
M  V30 1762 O 178.372 -1.57176 -0.927463 0
M  V30 1763 C 178.423 -2.73698 2.3616 0
M  V30 1764 O 178.144 -2.34524 3.7004 0
M  V30 1765 C 179.645 -3.67389 2.48072 0
M  V30 1766 H 176.865 -0.455357 0.49284 0
M  V30 1767 H 179.409 -0.848574 1.86063 0
M  V30 1768 H 177.564 -3.32891 1.98148 0
M  V30 1769 H 177.978 -3.15701 4.18847 0
M  V30 1770 H 179.452 -4.52475 3.16181 0
M  V30 1771 H 179.929 -4.12284 1.51388 0
M  V30 1772 H 180.535 -3.14097 2.86746 0
M  V30 1773 N 178.85 -1.27639 -0.924453 0
M  V30 1774 C 179.78 -1.13166 -2.04244 0
M  V30 1775 C 180.761 -0.032256 -1.70069 0
M  V30 1776 O 181.946 -0.207328 -1.9309 0
M  V30 1777 C 179.076 -0.781496 -3.38393 0
M  V30 1778 C 178.03 -1.83449 -3.86692 0
M  V30 1779 C 177.356 -1.33822 -5.17683 0
M  V30 1780 C 178.656 -3.23917 -4.09726 0
M  V30 1781 H 180.35 -2.06689 -2.1661 0
M  V30 1782 H 177.896 -0.995136 -1.04082 0
M  V30 1783 H 179.849 -0.667057 -4.16087 0
M  V30 1784 H 178.573 0.189439 -3.2605 0
M  V30 1785 H 177.232 -1.93789 -3.11193 0
M  V30 1786 H 176.88 -0.35665 -5.01734 0
M  V30 1787 H 176.58 -2.04224 -5.50968 0
M  V30 1788 H 178.104 -1.23679 -5.97943 0
M  V30 1789 H 179.518 -3.16559 -4.77978 0
M  V30 1790 H 177.915 -3.92059 -4.54324 0
M  V30 1791 H 178.985 -3.68729 -3.14908 0
M  V30 1792 N 180.328 1.1314 -1.09713 0
M  V30 1793 C 181.574 1.84757 -0.836224 0
M  V30 1794 C 181.907 1.8347 0.636598 0
M  V30 1795 O 181.182 1.27491 1.46889 0
M  V30 1796 C 181.465 3.32782 -1.37578 0
M  V30 1797 C 181.318 3.42567 -2.91493 0
M  V30 1798 C 182.637 4.28307 -1.01198 0
M  V30 1799 H 179.756 0.67082 -0.305236 0
M  V30 1800 H 182.398 1.3278 -1.35903 0
M  V30 1801 H 180.548 3.77177 -0.931097 0
M  V30 1802 H 182.22 3.06862 -3.44432 0
M  V30 1803 H 180.463 2.83349 -3.28475 0
M  V30 1804 H 181.134 4.46674 -3.24324 0
M  V30 1805 H 183.61 3.91999 -1.39556 0
M  V30 1806 H 182.486 5.30307 -1.41653 0
M  V30 1807 H 182.747 4.42029 0.0794833 0
M  V30 1808 N 181.806 0.884767 1.30421 0
M  V30 1809 C 183.054 0.502112 1.95763 0
M  V30 1810 C 183.375 -0.951815 1.70192 0
M  V30 1811 O 182.645 -1.6692 1.0254 0
M  V30 1812 H 181.225 0.182694 0.724315 0
M  V30 1813 H 183.887 1.1278 1.58955 0
M  V30 1814 H 182.983 0.672188 3.04775 0
M  V30 1815 N 183.284 -1.43765 0.645699 0
M  V30 1816 C 184.194 -2.34544 -0.0512957 0
M  V30 1817 C 185.21 -1.53455 -0.82022 0
M  V30 1818 O 186.386 -1.86133 -0.769176 0
M  V30 1819 C 183.451 -3.31636 -1.01087 0
M  V30 1820 C 182.512 -4.2863 -0.239712 0
M  V30 1821 C 181.745 -5.21084 -1.15358 0
M  V30 1822 O 181.968 -5.1779 -2.39269 0
M  V30 1823 O 180.902 -5.98593 -0.630038 0
M  V30 1824 H 184.728 -2.95624 0.695718 0
M  V30 1825 H 182.313 -1.43781 0.405882 0
M  V30 1826 H 184.195 -3.9136 -1.56254 0
M  V30 1827 H 182.87 -2.73069 -1.73824 0
M  V30 1828 H 181.777 -3.72408 0.355356 0
M  V30 1829 H 183.11 -4.90157 0.447936 0
M  V30 1830 N 184.763 -0.387143 -1.52771 0
M  V30 1831 C 185.696 0.493123 -2.22808 0
M  V30 1832 C 186.674 1.0658 -1.22798 0
M  V30 1833 O 187.858 1.11785 -1.51777 0
M  V30 1834 C 184.985 1.68238 -2.93962 0
M  V30 1835 C 184.031 1.23515 -4.08223 0
M  V30 1836 S 184.864 0.21848 -5.35054 0
M  V30 1837 C 186.02 1.41357 -6.09729 0
M  V30 1838 H 186.253 -0.101625 -2.97126 0
M  V30 1839 H 183.786 -0.171323 -1.53447 0
M  V30 1840 H 185.744 2.36443 -3.35567 0
M  V30 1841 H 184.405 2.24842 -2.19328 0
M  V30 1842 H 183.598 2.12304 -4.57103 0
M  V30 1843 H 183.2 0.632044 -3.68621 0
M  V30 1844 H 185.492 2.34101 -6.3577 0
M  V30 1845 H 186.435 0.965736 -7.01484 0
M  V30 1846 H 186.843 1.6294 -5.40473 0
M  V30 1847 N 186.241 1.57166 -0.116904 0
M  V30 1848 C 187.204 2.14039 0.819742 0
M  V30 1849 C 188.204 1.07477 1.19605 0
M  V30 1850 O 189.394 1.33263 1.1219 0
M  V30 1851 C 186.526 2.67891 2.10826 0
M  V30 1852 H 187.719 2.98128 0.325511 0
M  V30 1853 H 185.272 1.55739 0.132312 0
M  V30 1854 H 186.007 1.87384 2.64685 0
M  V30 1855 H 185.792 3.45823 1.84793 0
M  V30 1856 H 187.282 3.11809 2.77785 0
M  V30 1857 N 187.719 -0.156864 1.56817 0
M  V30 1858 C 188.666 -1.19394 1.97519 0
M  V30 1859 C 189.636 -1.4322 0.841265 0
M  V30 1860 O 190.821 -1.55719 1.10255 0
M  V30 1861 C 187.961 -2.52483 2.35258 0
M  V30 1862 C 187.074 -2.35914 3.61896 0
M  V30 1863 C 186.209 -3.61969 3.88782 0
M  V30 1864 C 185.248 -3.40395 5.08722 0
M  V30 1865 N 184.385 -4.58556 5.31668 0
M  V30 1866 H 189.225 -0.839845 2.85921 0
M  V30 1867 H 186.762 -0.403264 1.41464 0
M  V30 1868 H 188.72 -3.30071 2.55165 0
M  V30 1869 H 187.35 -2.85859 1.49949 0
M  V30 1870 H 186.402 -1.49429 3.49821 0
M  V30 1871 H 187.714 -2.15926 4.49641 0
M  V30 1872 H 186.868 -4.47989 4.09135 0
M  V30 1873 H 185.607 -3.84951 2.9944 0
M  V30 1874 H 184.612 -2.52763 4.88253 0
M  V30 1875 H 185.837 -3.18822 5.99608 0
M  V30 1876 H 183.783 -4.81729 4.45279 0
M  V30 1877 H 183.7 -4.41535 6.13664 0
M  V30 1878 H 184.968 -5.45817 5.5651 0
M  V30 1879 N 189.197 -1.51736 -0.425897 0
M  V30 1880 C 190.16 -1.73271 -1.50032 0
M  V30 1881 C 191.16 -0.602639 -1.4908 0
M  V30 1882 O 192.35 -0.87033 -1.509 0
M  V30 1883 C 189.482 -1.79969 -2.89523 0
M  V30 1884 H 190.675 -2.69172 -1.32237 0
M  V30 1885 H 188.228 -1.41899 -0.65532 0
M  V30 1886 H 188.963 -0.859241 -3.1271 0
M  V30 1887 H 188.748 -2.62109 -2.91619 0
M  V30 1888 H 190.238 -1.9843 -3.67444 0
M  V30 1889 N 190.675 0.682077 -1.42076 0
M  V30 1890 C 191.638 1.77756 -1.44691 0
M  V30 1891 C 192.638 1.5726 -0.335535 0
M  V30 1892 O 193.828 1.63686 -0.596037 0
M  V30 1893 C 190.96 3.16301 -1.27146 0
M  V30 1894 H 192.153 1.76826 -2.42224 0
M  V30 1895 H 189.706 0.891012 -1.28416 0
M  V30 1896 H 190.441 3.22862 -0.305075 0
M  V30 1897 H 190.226 3.32581 -2.07683 0
M  V30 1898 H 191.716 3.96241 -1.31843 0
M  V30 1899 N 192.153 1.28127 0.917671 0
M  V30 1900 C 193.401 1.14825 1.66312 0
M  V30 1901 C 193.722 -0.304379 1.9261 0
M  V30 1902 O 192.992 -1.21149 1.53947 0
M  V30 1903 H 191.572 0.421953 0.616413 0
M  V30 1904 H 194.234 1.608 1.10134 0
M  V30 1905 H 193.33 1.68489 2.62712 0
M  V30 1906 N 193.631 -1.12557 1.10312 0
M  V30 1907 C 194.877 -1.84311 0.846011 0
M  V30 1908 C 195.21 -1.83805 -0.626859 0
M  V30 1909 O 194.485 -1.28268 -1.46211 0
M  V30 1910 C 194.768 -3.32048 1.39341 0
M  V30 1911 C 194.621 -3.41016 2.93305 0
M  V30 1912 C 195.94 -4.27764 1.03468 0
M  V30 1913 H 193.059 -0.669192 0.30879 0
M  V30 1914 H 195.701 -1.32057 1.36605 0
M  V30 1915 H 193.851 -3.76678 0.951087 0
M  V30 1916 H 195.523 -3.05031 3.46055 0
M  V30 1917 H 193.766 -2.81603 3.29973 0
M  V30 1918 H 194.437 -4.44948 3.26689 0
M  V30 1919 H 196.913 -3.91253 1.41633 0
M  V30 1920 H 195.789 -5.29549 1.44463 0
M  V30 1921 H 196.05 -4.42064 -0.0560404 0
M  V30 1922 N 195.109 -0.891671 -1.2995 0
M  V30 1923 C 196.057 -0.353066 -2.29905 0
M  V30 1924 C 197.051 0.543509 -1.60444 0
M  V30 1925 O 198.257 0.4272 -1.74857 0
M  V30 1926 H 194.632 -0.095531 -0.745907 0
M  V30 1927 H 196.603 -1.20961 -2.72784 0
M  V30 1928 C 195.352 0.411475 -3.45257 0
M  V30 1929 H 194.675 -0.269182 -3.98893 0
M  V30 1930 H 196.115 0.753328 -4.17254 0
M  V30 1931 C 194.574 1.6111 -2.9588 0
M  V30 1932 O 195.104 2.71045 -2.96475 0
M  V30 1933 N 193.31 1.45054 -2.51809 0
M  V30 1934 H 192.857 0.556175 -2.51524 0
M  V30 1935 H 192.815 2.25453 -2.1913 0
M  V30 1936 N 196.587 1.43421 -0.653314 0
M  V30 1937 C 197.833 2.02111 -0.166992 0
M  V30 1938 C 198.166 1.51423 1.21592 0
M  V30 1939 O 197.441 0.707389 1.8118 0
M  V30 1940 C 197.724 3.5966 -0.177948 0
M  V30 1941 C 197.577 4.20579 -1.59478 0
M  V30 1942 C 198.896 4.37413 0.4856 0
M  V30 1943 H 196.015 0.734374 -0.0621557 0
M  V30 1944 H 198.657 1.70717 -0.834016 0
M  V30 1945 H 196.807 3.86537 0.390032 0
M  V30 1946 H 198.479 4.04732 -2.21336 0
M  V30 1947 H 196.722 3.77226 -2.14204 0
M  V30 1948 H 197.393 5.29665 -1.5543 0
M  V30 1949 H 199.869 4.161 0.00234528 0
M  V30 1950 H 198.745 5.47075 0.447207 0
M  V30 1951 H 199.006 4.13672 1.55974 0
M  V30 1952 N 198.065 0.39524 1.52563 0
M  V30 1953 C 199.313 -0.184678 2.01254 0
M  V30 1954 C 199.634 -1.46822 1.28329 0
M  V30 1955 O 198.904 -1.91666 0.405094 0
M  V30 1956 H 197.484 -0.0712355 0.743596 0
M  V30 1957 H 200.146 0.528293 1.87603 0
M  V30 1958 H 199.242 -0.390681 3.09645 0
M  V30 1959 N 199.544 -1.57102 0.125237 0
M  V30 1960 C 200.79 -1.95697 -0.532035 0
M  V30 1961 C 201.123 -1.009 -1.6593 0
M  V30 1962 O 200.398 -0.047347 -1.94442 0
M  V30 1963 C 200.681 -3.44181 -1.05884 0
M  V30 1964 C 200.534 -4.49752 0.0654392 0
M  V30 1965 C 201.853 -3.94655 -1.9477 0
M  V30 1966 H 198.972 -0.711571 -0.191925 0
M  V30 1967 H 201.614 -1.88923 0.20206 0
M  V30 1968 H 199.764 -3.50085 -1.68442 0
M  V30 1969 H 201.436 -4.55943 0.700982 0
M  V30 1970 H 199.679 -4.27653 0.727709 0
M  V30 1971 H 200.35 -5.50924 -0.344505 0
M  V30 1972 H 202.826 -3.91094 -1.42074 0
M  V30 1973 H 201.702 -4.99057 -2.28546 0
M  V30 1974 H 201.963 -3.35718 -2.87656 0
M  V30 1975 N 201.022 0.148545 -1.56898 0
M  V30 1976 C 202.27 0.859717 -1.82902 0
M  V30 1977 C 202.591 1.81775 -0.70588 0
M  V30 1978 O 201.861 1.93994 0.272586 0
M  V30 1979 H 200.441 0.320469 -0.674766 0
M  V30 1980 H 203.103 0.142918 -1.94375 0
M  V30 1981 H 202.199 1.4229 -2.77777 0
M  V30 1982 N 202.5 1.5196 0.417844 0
M  V30 1983 C 203.748 1.65263 1.16329 0
M  V30 1984 C 204.069 0.380634 1.91249 0
M  V30 1985 O 203.339 -0.604214 1.86349 0
M  V30 1986 H 201.919 0.60912 0.432414 0
M  V30 1987 H 204.581 1.88969 0.477162 0
M  V30 1988 H 203.677 2.4896 1.88217 0
M  V30 1989 N 203.978 -0.674533 1.42435 0
M  V30 1990 C 204.926 -1.80934 1.46169 0
M  V30 1991 C 205.92 -1.66006 0.3374 0
M  V30 1992 O 207.126 -1.72611 0.510425 0
M  V30 1993 H 203.501 -0.596594 0.457798 0
M  V30 1994 H 205.472 -1.74903 2.41767 0
M  V30 1995 C 204.221 -3.19088 1.38123 0
M  V30 1996 H 203.544 -3.31203 2.23931 0
M  V30 1997 H 204.984 -3.9851 1.44797 0
M  V30 1998 C 203.443 -3.36763 0.0960517 0
M  V30 1999 O 203.973 -3.92581 -0.851073 0
M  V30 2000 N 202.179 -2.90597 0.0131186 0
M  V30 2001 H 201.726 -2.45359 0.784639 0
M  V30 2002 H 201.684 -3.028 -0.846133 0
M  V30 2003 N 205.456 -1.28612 -0.910864 0
M  V30 2004 C 206.705 -1.15311 -1.65488 0
M  V30 2005 C 207.018 0.296999 -1.93332 0
M  V30 2006 O 208.224 0.551168 -2.65847 0
M  V30 2007 C 206.68 -2.01599 -2.98137 0
M  V30 2008 C 206.288 -3.51367 -2.7793 0
M  V30 2009 C 208.032 -1.96993 -3.76024 0
M  V30 2010 C 205.939 -4.29797 -4.06237 0
M  V30 2011 H 204.869 -0.42796 -0.620779 0
M  V30 2012 H 207.52 -1.53166 -1.01057 0
M  V30 2013 H 205.902 -1.56603 -3.63719 0
M  V30 2014 H 207.076 -4.0434 -2.21011 0
M  V30 2015 H 205.391 -3.57529 -2.13452 0
M  V30 2016 H 207.988 -2.52856 -4.71135 0
M  V30 2017 H 208.331 -0.94733 -4.05378 0
M  V30 2018 H 208.864 -2.39973 -3.17266 0
M  V30 2019 H 205.603 -5.32648 -3.82055 0
M  V30 2020 H 205.123 -3.81596 -4.62757 0
M  V30 2021 H 206.802 -4.39869 -4.74473 0
M  V30 2022 N 206.934 1.1197 -1.10907 0
M  V30 2023 C 208.182 1.83225 -0.852819 0
M  V30 2024 C 208.503 1.84769 0.623341 0
M  V30 2025 O 207.773 1.3143 1.45269 0
M  V30 2026 H 206.353 0.67849 -0.312507 0
M  V30 2027 H 209.015 1.3556 -1.40033 0
M  V30 2028 H 208.111 2.87265 -1.22005 0
M  V30 2029 N 208.412 0.89855 1.29475 0
M  V30 2030 C 209.342 0.39201 2.30186 0
M  V30 2031 C 210.323 -0.532359 1.61555 0
M  V30 2032 O 211.508 -0.443331 1.89072 0
M  V30 2033 C 208.638 -0.382353 3.45189 0
M  V30 2034 C 207.592 0.451483 4.25612 0
M  V30 2035 C 206.918 -0.450307 5.328 0
M  V30 2036 C 208.218 1.70079 4.93832 0
M  V30 2037 H 209.912 1.23362 2.72804 0
M  V30 2038 H 207.458 0.594638 1.31149 0
M  V30 2039 H 209.411 -0.747451 4.14718 0
M  V30 2040 H 208.135 -1.25774 3.01411 0
M  V30 2041 H 206.794 0.798897 3.57789 0
M  V30 2042 H 206.442 -1.32379 4.85268 0
M  V30 2043 H 206.142 0.103902 5.87508 0
M  V30 2044 H 207.666 -0.811623 6.05182 0
M  V30 2045 H 209.08 1.40549 5.55805 0
M  V30 2046 H 207.477 2.19623 5.58467 0
M  V30 2047 H 208.547 2.43744 4.19186 0
M  V30 2048 N 209.89 -1.43072 0.660911 0
M  V30 2049 C 211.301 -1.84932 0.256348 0
M  V30 2050 C 211.652 -1.55325 -1.19868 0
M  V30 2051 O 210.777 -1.00607 -1.91591 0
M  V30 2052 C 211.372 -3.35684 0.458475 0
M  V30 2053 C 209.931 -3.76245 0.108161 0
M  V30 2054 C 209.078 -2.66749 0.757641 0
M  V30 2055 H 212.029 -1.33116 0.864051 0
M  V30 2056 H 212.05 -3.79365 -0.293683 0
M  V30 2057 H 211.562 -3.572 1.51755 0
M  V30 2058 H 209.663 -3.60338 -0.948014 0
M  V30 2059 H 209.776 -4.76058 0.538992 0
M  V30 2060 H 208.14 -2.53989 0.190185 0
M  V30 2061 H 208.923 -2.91092 1.81989 0
M  V30 2062 N 211.368 -0.403325 -1.52352 0
M  V30 2063 C 212.331 0.413051 -2.25447 0
M  V30 2064 C 213.331 0.978513 -1.276 0
M  V30 2065 O 214.521 0.858305 -1.51587 0
M  V30 2066 C 211.653 1.58087 -3.02029 0
M  V30 2067 H 212.846 -0.227094 -2.99039 0
M  V30 2068 H 210.399 -0.155722 -1.55522 0
M  V30 2069 H 211.134 2.25804 -2.32772 0
M  V30 2070 H 210.919 1.18195 -3.73861 0
M  V30 2071 H 212.409 2.1585 -3.57489 0
M  V30 2072 N 212.846 1.57033 -0.133567 0
M  V30 2073 C 213.776 2.1909 0.807567 0
M  V30 2074 C 214.757 1.13517 1.26681 0
M  V30 2075 O 215.942 1.41809 1.32679 0
M  V30 2076 C 213.072 2.80188 2.05212 0
M  V30 2077 C 212.026 3.91471 1.73015 0
M  V30 2078 C 211.352 4.39443 3.04622 0
M  V30 2079 C 212.652 5.12886 0.987168 0
M  V30 2080 H 214.346 2.97988 0.290403 0
M  V30 2081 H 211.892 1.43335 0.138239 0
M  V30 2082 H 213.845 3.22264 2.71521 0
M  V30 2083 H 212.569 1.98601 2.59278 0
M  V30 2084 H 211.228 3.49993 1.0909 0
M  V30 2085 H 210.876 3.54695 3.56651 0
M  V30 2086 H 210.576 5.14495 2.83847 0
M  V30 2087 H 212.1 4.8418 3.72024 0
M  V30 2088 H 213.514 5.51891 1.55208 0
M  V30 2089 H 211.911 5.93615 0.87985 0
M  V30 2090 H 212.981 4.84894 -0.0235286 0
M  V30 2091 N 214.325 -0.140222 1.56975 0
M  V30 2092 C 215.258 -1.20266 1.93936 0
M  V30 2093 C 216.236 -1.41212 0.806099 0
M  V30 2094 O 217.42 -1.55713 1.06234 0
M  V30 2095 C 214.547 -2.56037 2.21726 0
M  V30 2096 C 213.593 -2.51646 3.44349 0
M  V30 2097 S 214.426 -1.97678 4.97678 0
M  V30 2098 C 215.582 -3.35165 5.28597 0
M  V30 2099 H 215.815 -0.887358 2.83749 0
M  V30 2100 H 213.348 -0.346119 1.50471 0
M  V30 2101 H 215.306 -3.34167 2.38416 0
M  V30 2102 H 213.967 -2.84755 1.32566 0
M  V30 2103 H 213.16 -3.51608 3.61092 0
M  V30 2104 H 212.762 -1.81628 3.26936 0
M  V30 2105 H 215.054 -4.31302 5.2248 0
M  V30 2106 H 215.997 -3.23269 6.30002 0
M  V30 2107 H 216.405 -3.32614 4.56101 0
M  V30 2108 N 215.803 -1.52179 -0.40978 0
M  V30 2109 C 216.733 -1.78435 -1.5061 0
M  V30 2110 C 217.714 -0.635295 -1.57791 0
M  V30 2111 O 218.899 -0.880823 -1.73076 0
M  V30 2112 C 216.029 -1.93444 -2.88439 0
M  V30 2113 C 214.983 -3.09038 -2.96108 0
M  V30 2114 C 214.309 -3.09268 -4.36185 0
M  V30 2115 C 215.609 -4.48508 -2.67652 0
M  V30 2116 H 217.303 -2.70237 -1.28889 0
M  V30 2117 H 214.849 -1.30036 -0.618605 0
M  V30 2118 H 216.802 -2.10394 -3.65119 0
M  V30 2119 H 215.526 -0.983129 -3.11452 0
M  V30 2120 H 214.185 -2.91837 -2.21872 0
M  V30 2121 H 213.833 -2.11861 -4.56206 0
M  V30 2122 H 213.533 -3.86907 -4.42241 0
M  V30 2123 H 215.057 -3.28348 -5.14801 0
M  V30 2124 H 216.471 -4.65918 -3.34056 0
M  V30 2125 H 214.868 -5.28059 -2.85085 0
M  V30 2126 H 215.938 -4.56649 -1.63095 0
M  V30 2127 N 217.281 0.66697 -1.42791 0
M  V30 2128 C 218.211 1.79218 -1.49677 0
M  V30 2129 C 219.192 1.66405 -0.352623 0
M  V30 2130 O 220.377 1.85708 -0.567993 0
M  V30 2131 C 217.507 3.17565 -1.40605 0
M  V30 2132 C 216.461 3.45124 -2.53127 0
M  V30 2133 C 215.787 4.83127 -2.29112 0
M  V30 2134 C 217.087 3.41236 -3.95418 0
M  V30 2135 H 218.781 1.73713 -2.43853 0
M  V30 2136 H 216.327 0.83432 -1.17367 0
M  V30 2137 H 218.28 3.96022 -1.44029 0
M  V30 2138 H 217.004 3.23767 -0.429271 0
M  V30 2139 H 215.663 2.69031 -2.49034 0
M  V30 2140 H 215.311 4.85988 -1.29709 0
M  V30 2141 H 215.011 5.02528 -3.04531 0
M  V30 2142 H 216.535 5.63859 -2.34297 0
M  V30 2143 H 217.949 4.09651 -4.01073 0
M  V30 2144 H 216.346 3.72173 -4.70752 0
M  V30 2145 H 217.416 2.39665 -4.21532 0
M  V30 2146 N 218.759 1.29093 0.90403 0
M  V30 2147 C 220.036 1.075 1.63411 0
M  V30 2148 C 220.416 -0.382346 2.07609 0
M  V30 2149 O 219.764 -1.37031 1.82851 0
M  V30 2150 C 219.974 2.05858 2.81822 0
M  V30 2151 C 221.322 2.36539 3.52611 0
M  V30 2152 O 222.346 2.04019 2.91984 0
M  V30 2153 O 221.205 2.92085 4.61897 0
M  V30 2154 H 218.299 0.411547 0.717327 0
M  V30 2155 H 220.845 1.40449 0.952479 0
M  V30 2156 H 219.617 3.04037 2.46327 0
M  V30 2157 H 219.24 1.73613 3.57693 0
M  V30 2158 N 220.237 -1.11381 1.11499 0
M  V30 2159 C 221.514 -1.7955 0.775965 0
M  V30 2160 C 221.894 -1.97859 -0.73588 0
M  V30 2161 O 221.242 -1.56376 -1.66609 0
M  V30 2162 C 221.452 -3.13196 1.53977 0
M  V30 2163 C 222.8 -3.88227 1.71944 0
M  V30 2164 O 223.824 -3.22887 1.50407 0
M  V30 2165 O 222.683 -5.05477 2.07738 0
M  V30 2166 H 219.777 -0.777728 0.28119 0
M  V30 2167 H 222.323 -1.18118 1.21845 0
M  V30 2168 H 221.095 -2.95229 2.56818 0
M  V30 2169 H 220.718 -3.82342 1.09088 0
M  V30 2170 N 221.715 -0.905404 -1.28997 0
M  V30 2171 C 222.625 -0.392246 -2.31298 0
M  V30 2172 C 223.641 0.515889 -1.66176 0
M  V30 2173 O 224.817 0.404093 -1.97304 0
M  V30 2174 C 221.882 0.36686 -3.44754 0
M  V30 2175 C 220.943 -0.573485 -4.25452 0
M  V30 2176 C 220.176 0.149488 -5.33491 0
M  V30 2177 O 220.399 1.37255 -5.5364 0
M  V30 2178 O 219.333 -0.510919 -5.99728 0
M  V30 2179 H 223.159 -1.2411 -2.77183 0
M  V30 2180 H 220.744 -0.669926 -1.33538 0
M  V30 2181 H 222.626 0.795907 -4.13816 0
M  V30 2182 H 221.301 1.19169 -3.00966 0
M  V30 2183 H 220.208 -1.05176 -3.59011 0
M  V30 2184 H 221.541 -1.36489 -4.72897 0
M  V30 2185 N 223.193 1.4272 -0.668489 0
M  V30 2186 C 224.433 2.03497 -0.19194 0
M  V30 2187 C 224.797 1.51684 1.17712 0
M  V30 2188 O 225.998 2.04205 1.74796 0
M  V30 2189 C 224.269 3.56734 -0.218032 0
M  V30 2190 S 225.828 4.38395 0.188438 0
M  V30 2191 H 222.646 0.706542 -0.0794959 0
M  V30 2192 H 225.248 1.74563 -0.880235 0
M  V30 2193 H 223.952 3.91943 -1.2169 0
M  V30 2194 H 223.483 3.90333 0.490303 0
M  V30 2195 H 225.498 4.75345 1.42345 0
M  V30 2196 N 224.671 0.411399 1.52136 0
M  V30 2197 C 225.581 -0.419774 2.30814 0
M  V30 2198 C 226.597 -1.0515 1.38634 0
M  V30 2199 O 227.773 -1.05252 1.71709 0
M  V30 2200 C 224.838 -1.52019 3.11594 0
M  V30 2201 C 223.899 -0.91129 4.19516 0
M  V30 2202 C 223.132 -1.95927 4.96436 0
M  V30 2203 O 223.355 -3.17775 4.73683 0
M  V30 2204 O 222.289 -1.56423 5.81219 0
M  V30 2205 H 226.115 0.221805 3.02889 0
M  V30 2206 H 223.7 0.174547 1.48377 0
M  V30 2207 H 225.582 -2.15898 3.61892 0
M  V30 2208 H 224.257 -2.14633 2.42311 0
M  V30 2209 H 223.164 -0.235157 3.7336 0
M  V30 2210 H 224.497 -0.32904 4.91099 0
M  V30 2211 N 226.149 -1.5696 0.141893 0
M  V30 2212 C 227.079 -2.19516 -0.795936 0
M  V30 2213 C 228.06 -1.14187 -1.26077 0
M  V30 2214 O 229.245 -1.42511 -1.31925 0
M  V30 2215 C 226.375 -2.81272 -2.03723 0
M  V30 2216 C 225.329 -3.92384 -1.70936 0
M  V30 2217 C 224.655 -4.41052 -3.02287 0
M  V30 2218 C 225.955 -5.13403 -0.959954 0
M  V30 2219 H 227.649 -2.98138 -0.274596 0
M  V30 2220 H 225.195 -1.43406 -0.130636 0
M  V30 2221 H 227.148 -3.237 -2.69808 0
M  V30 2222 H 225.872 -1.99973 -2.58221 0
M  V30 2223 H 224.531 -3.50566 -1.07232 0
M  V30 2224 H 224.179 -3.56582 -3.54765 0
M  V30 2225 H 223.879 -5.15993 -2.81114 0
M  V30 2226 H 225.403 -4.86146 -3.69451 0
M  V30 2227 H 226.817 -5.52706 -1.52279 0
M  V30 2228 H 225.214 -5.94073 -0.848357 0
M  V30 2229 H 226.284 -4.84875 0.0492434 0
M  V30 2230 N 227.627 0.131896 -1.57047 0
M  V30 2231 C 228.857 0.855219 -1.88068 0
M  V30 2232 C 229.265 1.74557 -0.729817 0
M  V30 2233 O 228.608 1.81083 0.308962 0
M  V30 2234 C 228.67 1.75119 -3.13964 0
M  V30 2235 C 228.334 1.03646 -4.45091 0
M  V30 2236 C 229.331 0.383276 -5.18485 0
M  V30 2237 C 227.016 1.02148 -4.91804 0
M  V30 2238 C 229.01 -0.275347 -6.36805 0
M  V30 2239 C 226.697 0.359047 -6.10044 0
M  V30 2240 C 227.695 -0.288222 -6.82392 0
M  V30 2241 O 227.383 -0.94011 -7.98384 0
M  V30 2242 H 227.115 0.251864 -0.627328 0
M  V30 2243 H 229.669 0.124782 -2.05021 0
M  V30 2244 H 227.899 2.52295 -2.9306 0
M  V30 2245 H 229.588 2.3478 -3.31109 0
M  V30 2246 H 230.354 0.386562 -4.83457 0
M  V30 2247 H 226.233 1.5147 -4.35405 0
M  V30 2248 H 229.777 -0.781148 -6.93213 0
M  V30 2249 H 225.674 0.35348 -6.44531 0
M  V30 2250 H 226.442 -0.84329 -8.14144 0
M  V30 2251 N 229.106 1.52395 0.401703 0
M  V30 2252 C 230.352 1.67065 1.14966 0
M  V30 2253 C 230.685 0.403052 1.89971 0
M  V30 2254 O 229.96 -0.598774 1.85054 0
M  V30 2255 C 230.243 2.8975 2.13815 0
M  V30 2256 C 230.096 4.26578 1.42658 0
M  V30 2257 C 231.415 3.07965 3.14397 0
M  V30 2258 H 228.534 0.607968 0.416587 0
M  V30 2259 H 231.176 1.84965 0.434511 0
M  V30 2260 H 229.326 2.74619 2.74803 0
M  V30 2261 H 230.998 4.53451 0.847329 0
M  V30 2262 H 229.241 4.27639 0.72849 0
M  V30 2263 H 229.912 5.08483 2.14823 0
M  V30 2264 H 232.388 3.22043 2.63491 0
M  V30 2265 H 231.264 3.95308 3.80819 0
M  V30 2266 H 231.525 2.21611 3.82545 0
M  V30 2267 N 230.584 -0.659388 1.43143 0
M  V30 2268 C 231.514 -1.78422 1.50625 0
M  V30 2269 C 232.495 -1.66216 0.361443 0
M  V30 2270 O 233.68 -1.85404 0.577834 0
M  V30 2271 C 230.81 -3.16815 1.42287 0
M  V30 2272 C 229.764 -3.43777 2.54954 0
M  V30 2273 C 229.09 -4.81905 2.31671 0
M  V30 2274 C 230.39 -3.39134 3.97222 0
M  V30 2275 H 232.084 -1.72417 2.44771 0
M  V30 2276 H 229.63 -0.828084 1.17808 0
M  V30 2277 H 231.583 -3.95253 1.46127 0
M  V30 2278 H 230.307 -3.23534 0.446435 0
M  V30 2279 H 228.966 -2.67707 2.50457 0
M  V30 2280 H 228.614 -4.85294 1.32284 0
M  V30 2281 H 228.314 -5.00906 3.07192 0
M  V30 2282 H 229.838 -5.62609 2.37284 0
M  V30 2283 H 231.252 -4.07518 4.03239 0
M  V30 2284 H 229.649 -3.69671 4.72719 0
M  V30 2285 H 230.719 -2.37426 4.22797 0
M  V30 2286 N 232.062 -1.29571 -0.897171 0
M  V30 2287 C 232.972 -1.16808 -2.03453 0
M  V30 2288 C 233.988 -0.0907471 -1.73763 0
M  V30 2289 O 235.164 -0.303312 -1.99103 0
M  V30 2290 C 232.229 -0.848264 -3.36163 0
M  V30 2291 C 231.29 -2.0097 -3.79354 0
M  V30 2292 C 230.523 -1.70505 -5.05731 0
M  V30 2293 O 230.746 -0.62718 -5.66941 0
M  V30 2294 O 229.68 -2.5538 -5.45036 0
M  V30 2295 H 233.506 -2.12325 -2.17144 0
M  V30 2296 H 231.091 -1.09047 -1.02123 0
M  V30 2297 H 232.973 -0.684581 -4.15802 0
M  V30 2298 H 231.648 0.0771071 -3.23608 0
M  V30 2299 H 230.555 -2.22863 -3.00471 0
M  V30 2300 H 231.888 -2.91636 -3.96496 0
M  V30 2301 N 233.54 1.10788 -1.12088 0
M  V30 2302 C 234.47 2.19083 -0.807755 0
M  V30 2303 C 235.451 1.6858 0.226859 0
M  V30 2304 O 236.636 1.93997 0.0888475 0
M  V30 2305 C 233.766 3.46344 -0.257576 0
M  V30 2306 C 232.72 4.101 -1.22483 0
M  V30 2307 C 232.046 5.32016 -0.535052 0
M  V30 2308 C 233.346 4.54236 -2.57811 0
M  V30 2309 H 235.04 2.45534 -1.71328 0
M  V30 2310 H 232.586 1.1801 -0.825205 0
M  V30 2311 H 234.539 4.21392 -0.0262679 0
M  V30 2312 H 233.263 3.19373 0.683278 0
M  V30 2313 H 231.922 3.37054 -1.44189 0
M  V30 2314 H 231.57 5.01319 0.410827 0
M  V30 2315 H 231.27 5.75625 -1.18024 0
M  V30 2316 H 232.794 6.09799 -0.312695 0
M  V30 2317 H 234.208 5.20575 -2.40155 0
M  V30 2318 H 232.605 5.08682 -3.18375 0
M  V30 2319 H 233.675 3.6734 -3.16528 0
M  V30 2320 N 235.018 0.912232 1.28515 0
M  V30 2321 C 236.243 0.559774 1.99703 0
M  V30 2322 C 236.668 -0.851393 1.67729 0
M  V30 2323 O 236.026 -1.56875 0.908834 0
M  V30 2324 C 236.074 0.773874 3.52198 0
M  V30 2325 O 235.178 -0.167842 4.12058 0
M  V30 2326 H 234.519 0.21723 0.627461 0
M  V30 2327 H 237.049 1.22725 1.63706 0
M  V30 2328 H 237.059 0.683386 4.02236 0
M  V30 2329 H 235.734 1.80261 3.74805 0
M  V30 2330 H 234.311 -0.0287509 3.72889 0
M  V30 2331 N 236.496 -1.42363 0.676048 0
M  V30 2332 C 237.721 -2.06377 0.205705 0
M  V30 2333 C 238.146 -1.50463 -1.12883 0
M  V30 2334 O 237.504 -0.623619 -1.70237 0
M  V30 2335 C 237.552 -3.60277 0.152655 0
M  V30 2336 O 236.656 -4.02935 -0.87845 0
M  V30 2337 H 235.997 -0.655588 0.105359 0
M  V30 2338 H 238.527 -1.82475 0.925412 0
M  V30 2339 H 238.537 -4.07993 -0.0230675 0
M  V30 2340 H 237.212 -4.00346 1.12675 0
M  V30 2341 H 235.789 -3.66764 -0.673668 0
M  V30 2342 N 237.974 -0.419461 -1.51915 0
M  V30 2343 C 239.221 0.152939 -2.01922 0
M  V30 2344 C 239.549 1.4426 -1.30458 0
M  V30 2345 O 238.804 1.91514 -0.402593 0
M  V30 2346 C 239.103 0.437067 -3.54717 0
M  V30 2347 C 238.769 -0.764632 -4.44369 0
M  V30 2348 C 237.431 -1.09423 -4.68594 0
M  V30 2349 C 239.783 -1.56713 -4.97082 0
M  V30 2350 C 237.111 -2.22732 -5.42777 0
M  V30 2351 C 239.463 -2.69107 -5.72507 0
M  V30 2352 C 238.127 -3.02541 -5.95 0
M  V30 2353 H 237.397 0.0559644 -0.738884 0
M  V30 2354 H 240.044 -0.562998 -1.83037 0
M  V30 2355 H 238.349 1.23469 -3.71837 0
M  V30 2356 H 240.046 0.893083 -3.90928 0
M  V30 2357 H 236.636 -0.497775 -4.257 0
M  V30 2358 H 240.82 -1.32571 -4.78266 0
M  V30 2359 H 236.076 -2.48971 -5.58411 0
M  V30 2360 H 240.25 -3.31671 -6.12346 0
M  V30 2361 H 237.877 -3.90457 -6.52264 0
M  V30 2362 N 239.452 1.56882 -0.150215 0
M  V30 2363 C 240.384 2.14057 0.819286 0
M  V30 2364 C 241.397 1.09082 1.20851 0
M  V30 2365 O 242.586 1.36347 1.15203 0
M  V30 2366 C 239.686 2.65102 2.11127 0
M  V30 2367 C 238.859 3.94511 1.88891 0
M  V30 2368 C 237.918 4.30834 3.02107 0
M  V30 2369 O 236.944 4.99099 2.73659 0
M  V30 2370 N 238.146 3.90676 4.29363 0
M  V30 2371 H 240.911 2.97871 0.330618 0
M  V30 2372 H 238.472 1.61866 0.0332538 0
M  V30 2373 H 240.464 2.86411 2.85921 0
M  V30 2374 H 239.034 1.85994 2.51247 0
M  V30 2375 H 238.254 3.81795 0.981152 0
M  V30 2376 H 239.542 4.7907 1.71376 0
M  V30 2377 H 238.94 3.35677 4.55343 0
M  V30 2378 H 237.497 4.1703 5.00928 0
M  V30 2379 N 240.93 -0.123565 1.57115 0
M  V30 2380 C 241.86 -1.15309 2.03042 0
M  V30 2381 C 242.841 -1.43454 0.914061 0
M  V30 2382 O 244.026 -1.53973 1.18347 0
M  V30 2383 C 241.156 -2.48043 2.43089 0
M  V30 2384 C 240.11 -2.3437 3.58127 0
M  V30 2385 C 239.436 -3.72026 3.84059 0
M  V30 2386 C 240.736 -1.80804 4.90007 0
M  V30 2387 H 242.43 -0.771102 2.893 0
M  V30 2388 H 239.976 -0.369479 1.39179 0
M  V30 2389 H 241.929 -3.20311 2.73823 0
M  V30 2390 H 240.653 -2.88122 1.53796 0
M  V30 2391 H 239.312 -1.64551 3.27595 0
M  V30 2392 H 238.96 -4.09582 2.91979 0
M  V30 2393 H 238.66 -3.63732 4.6149 0
M  V30 2394 H 240.184 -4.45806 4.1724 0
M  V30 2395 H 241.598 -2.42886 5.19307 0
M  V30 2396 H 239.995 -1.83343 5.71407 0
M  V30 2397 H 241.065 -0.76528 4.78823 0
M  V30 2398 N 242.408 -1.52605 -0.393616 0
M  V30 2399 C 243.318 -1.79971 -1.50492 0
M  V30 2400 C 244.334 -0.686181 -1.59899 0
M  V30 2401 O 245.51 -0.973274 -1.76322 0
M  V30 2402 C 242.575 -1.95867 -2.86072 0
M  V30 2403 C 241.636 -3.19781 -2.86424 0
M  V30 2404 C 240.869 -3.34909 -4.15538 0
M  V30 2405 O 241.092 -2.54948 -5.10253 0
M  V30 2406 O 240.026 -4.28141 -4.23059 0
M  V30 2407 H 243.852 -2.74328 -1.30299 0
M  V30 2408 H 241.437 -1.3764 -0.581005 0
M  V30 2409 H 243.319 -2.08056 -3.66457 0
M  V30 2410 H 241.994 -1.04699 -3.063 0
M  V30 2411 H 240.901 -3.13038 -2.04837 0
M  V30 2412 H 242.234 -4.1078 -2.71147 0
M  V30 2413 N 243.887 0.651787 -1.4349 0
M  V30 2414 C 245.115 1.43937 -1.48626 0
M  V30 2415 C 245.53 1.8851 -0.104587 0
M  V30 2416 O 244.887 1.5958 0.885464 0
M  V30 2417 C 244.938 2.6734 -2.43334 0
M  V30 2418 O 244.659 2.24631 -3.76128 0
M  V30 2419 C 246.16 3.60683 -2.57726 0
M  V30 2420 H 243.38 0.44213 -0.504739 0
M  V30 2421 H 245.924 0.798944 -1.88248 0
M  V30 2422 H 244.079 3.2752 -2.06904 0
M  V30 2423 H 244.493 3.04485 -4.2707 0
M  V30 2424 H 245.967 4.43933 -3.28067 0
M  V30 2425 H 246.444 4.08126 -1.62265 0
M  V30 2426 H 247.05 3.06384 -2.94973 0
M  V30 2427 N 245.365 1.30045 0.890287 0
M  V30 2428 C 246.593 1.21472 1.67487 0
M  V30 2429 C 247.008 -0.223241 1.87476 0
M  V30 2430 O 246.365 -1.14828 1.41847 0
M  V30 2431 C 246.416 1.93394 3.05419 0
M  V30 2432 O 246.137 3.31576 2.86337 0
M  V30 2433 C 247.638 1.91414 3.99844 0
M  V30 2434 H 244.858 0.420604 0.522813 0
M  V30 2435 H 247.402 1.7158 1.11268 0
M  V30 2436 H 245.557 1.47099 3.58386 0
M  V30 2437 H 245.971 3.67929 3.73802 0
M  V30 2438 H 247.445 2.46285 4.94012 0
M  V30 2439 H 247.922 0.891833 4.3005 0
M  V30 2440 H 248.528 2.37496 3.52811 0
M  V30 2441 N 246.843 -1.10192 1.12674 0
M  V30 2442 C 248.068 -1.86523 0.906853 0
M  V30 2443 C 248.493 -1.80221 -0.538711 0
M  V30 2444 O 247.851 -1.17396 -1.38158 0
M  V30 2445 C 247.899 -3.32758 1.3894 0
M  V30 2446 O 247.003 -4.08449 0.5695 0
M  V30 2447 H 246.344 -0.578678 0.325619 0
M  V30 2448 H 248.874 -1.39203 1.49946 0
M  V30 2449 H 248.884 -3.83608 1.38958 0
M  V30 2450 H 247.559 -3.36661 2.44197 0
M  V30 2451 H 246.136 -3.67427 0.636528 0
M  V30 2452 N 248.321 -0.919034 -1.28029 0
M  V30 2453 C 249.546 -0.570357 -1.99403 0
M  V30 2454 C 249.971 0.842486 -1.68178 0
M  V30 2455 O 249.329 1.56391 -0.917141 0
M  V30 2456 C 249.377 -0.792541 -3.51783 0
M  V30 2457 O 248.481 0.145988 -4.12142 0
M  V30 2458 H 247.822 -0.220555 -0.6263 0
M  V30 2459 H 250.352 -1.23592 -1.63053 0
M  V30 2460 H 250.362 -0.704708 -4.01868 0
M  V30 2461 H 249.037 -1.82247 -3.73844 0
M  V30 2462 H 247.614 0.00897528 -3.72899 0
M  V30 2463 N 249.799 1.42003 -0.683588 0
M  V30 2464 C 250.729 2.33487 -0.024866 0
M  V30 2465 C 251.71 1.51163 0.779975 0
M  V30 2466 O 252.895 1.79739 0.735362 0
M  V30 2467 C 250.025 3.3487 0.920836 0
M  V30 2468 C 248.979 4.27414 0.223958 0
M  V30 2469 C 248.305 5.19074 1.2832 0
M  V30 2470 C 249.605 5.14445 -0.90242 0
M  V30 2471 H 251.299 2.88819 -0.788921 0
M  V30 2472 H 248.845 1.38873 -0.38083 0
M  V30 2473 H 250.798 3.97787 1.39081 0
M  V30 2474 H 249.522 2.77861 1.71642 0
M  V30 2475 H 248.181 3.65904 -0.225864 0
M  V30 2476 H 247.829 4.58387 2.071 0
M  V30 2477 H 247.529 5.81822 0.821995 0
M  V30 2478 H 249.053 5.84867 1.75392 0
M  V30 2479 H 250.467 5.70998 -0.513272 0
M  V30 2480 H 248.864 5.86072 -1.28997 0
M  V30 2481 H 249.934 4.52322 -1.74737 0
M  V30 2482 N 251.277 0.427512 1.51691 0
M  V30 2483 C 252.209 -0.424521 2.25234 0
M  V30 2484 C 253.222 -0.994671 1.2888 0
M  V30 2485 O 254.411 -0.890483 1.54702 0
M  V30 2486 C 251.511 -1.60479 2.98496 0
M  V30 2487 C 250.684 -1.15527 4.21868 0
M  V30 2488 C 249.743 -2.20454 4.77793 0
M  V30 2489 O 248.769 -1.8029 5.39893 0
M  V30 2490 N 249.971 -3.52831 4.60967 0
M  V30 2491 H 252.736 0.205749 2.98993 0
M  V30 2492 H 250.297 0.255867 1.59865 0
M  V30 2493 H 252.289 -2.30276 3.32799 0
M  V30 2494 H 250.859 -2.14061 2.27809 0
M  V30 2495 H 250.079 -0.284736 3.9317 0
M  V30 2496 H 251.367 -0.832173 5.01949 0
M  V30 2497 H 250.765 -3.88201 4.11481 0
M  V30 2498 H 249.322 -4.18551 4.99658 0
M  V30 2499 N 252.755 -1.56801 0.158532 0
M  V30 2500 C 253.718 -2.16138 -0.762705 0
M  V30 2501 C 254.718 -1.1061 -1.16713 0
M  V30 2502 O 255.908 -1.36191 -1.08617 0
M  V30 2503 C 253.04 -2.73386 -2.03649 0
M  V30 2504 H 254.233 -2.98886 -0.246354 0
M  V30 2505 H 251.786 -1.56035 -0.0909744 0
M  V30 2506 H 252.521 -1.94335 -2.59623 0
M  V30 2507 H 252.306 -3.50601 -1.75559 0
M  V30 2508 H 253.796 -3.19065 -2.6942 0
M  V30 2509 N 254.233 0.115231 -1.57178 0
M  V30 2510 C 255.479 0.82357 -1.85325 0
M  V30 2511 C 255.812 1.79349 -0.744814 0
M  V30 2512 O 255.087 1.92899 0.249024 0
M  V30 2513 C 255.37 1.57014 -3.24066 0
M  V30 2514 C 255.223 0.619565 -4.45513 0
M  V30 2515 C 256.542 2.52545 -3.60429 0
M  V30 2516 H 253.661 0.297948 -0.674089 0
M  V30 2517 H 256.303 0.0877138 -1.89797 0
M  V30 2518 H 254.453 2.19742 -3.20383 0
M  V30 2519 H 256.125 0.000837639 -4.613 0
M  V30 2520 H 254.368 -0.0686174 -4.33746 0
M  V30 2521 H 255.039 1.17866 -5.3927 0
M  V30 2522 H 257.515 1.9992 -3.64926 0
M  V30 2523 H 256.391 3.01811 -4.58477 0
M  V30 2524 H 256.652 3.35383 -2.88047 0
M  V30 2525 N 255.711 1.52812 0.385517 0
M  V30 2526 C 256.674 1.77188 1.45386 0
M  V30 2527 C 257.674 0.641953 1.4743 0
M  V30 2528 O 258.864 0.910033 1.4854 0
M  V30 2529 C 255.996 1.87582 2.8465 0
M  V30 2530 H 257.189 2.72583 1.25054 0
M  V30 2531 H 254.742 1.43586 0.617467 0
M  V30 2532 H 255.477 0.941849 3.10322 0
M  V30 2533 H 255.262 2.69748 2.84567 0
M  V30 2534 H 256.752 2.08102 3.62054 0
M  V30 2535 N 257.189 -0.644168 1.43834 0
M  V30 2536 C 258.152 -1.73857 1.49353 0
M  V30 2537 C 259.152 -1.56315 0.377112 0
M  V30 2538 O 260.342 -1.62048 0.639226 0
M  V30 2539 C 257.474 -3.12819 1.35488 0
M  V30 2540 H 258.667 -1.70342 2.46827 0
M  V30 2541 H 256.22 -0.856652 1.30733 0
M  V30 2542 H 256.955 -3.2194 0.390569 0
M  V30 2543 H 256.74 -3.26958 2.16428 0
M  V30 2544 H 258.23 -3.92606 1.42302 0
M  V30 2545 N 258.668 -1.30515 -0.883378 0
M  V30 2546 C 259.896 -1.22359 -1.66841 0
M  V30 2547 C 260.311 0.213296 -1.87591 0
M  V30 2548 O 259.668 1.14075 -1.42454 0
M  V30 2549 C 259.719 -1.95011 -3.04389 0
M  V30 2550 O 259.44 -3.3309 -2.84575 0
M  V30 2551 C 260.941 -1.93532 -3.98824 0
M  V30 2552 H 258.161 -0.423371 -0.520575 0
M  V30 2553 H 260.705 -1.72167 -1.10357 0
M  V30 2554 H 258.86 -1.48997 -3.57601 0
M  V30 2555 H 259.274 -3.69907 -3.71846 0
M  V30 2556 H 260.748 -2.48902 -4.92699 0
M  V30 2557 H 261.225 -0.914627 -4.29571 0
M  V30 2558 H 261.831 -2.39364 -3.51547 0
M  V30 2559 N 260.146 1.09593 -1.13257 0
M  V30 2560 C 261.395 1.81105 -0.887917 0
M  V30 2561 C 261.708 1.86563 0.587672 0
M  V30 2562 O 262.914 2.54367 0.949204 0
M  V30 2563 C 261.37 3.25338 -1.53895 0
M  V30 2564 C 260.978 3.28151 -3.04994 0
M  V30 2565 C 262.722 4.01617 -1.37492 0
M  V30 2566 C 260.629 4.66897 -3.6299 0
M  V30 2567 H 259.559 0.678661 -0.328534 0
M  V30 2568 H 262.21 1.23183 -1.36008 0
M  V30 2569 H 260.592 3.8331 -0.994446 0
M  V30 2570 H 261.766 2.79953 -3.66009 0
M  V30 2571 H 260.081 2.65361 -3.20893 0
M  V30 2572 H 262.678 5.04119 -1.78235 0
M  V30 2573 H 263.021 4.15072 -0.31957 0
M  V30 2574 H 263.554 3.50082 -1.88912 0
M  V30 2575 H 260.293 4.58643 -4.68323 0
M  V30 2576 H 259.813 5.15426 -3.06752 0
M  V30 2577 H 261.492 5.3587 -3.62563 0
M  V30 2578 N 261.624 0.925811 1.2754 0
M  V30 2579 C 262.554 0.440748 2.29303 0
M  V30 2580 C 263.535 -0.497971 1.62648 0
M  V30 2581 O 264.72 -0.403126 1.8997 0
M  V30 2582 C 261.85 -0.309048 3.45922 0
M  V30 2583 C 260.804 0.54166 4.24559 0
M  V30 2584 C 260.13 -0.337191 5.33636 0
M  V30 2585 C 261.43 1.80516 4.90114 0
M  V30 2586 H 263.124 1.29121 2.70126 0
M  V30 2587 H 260.67 0.622323 1.29858 0
M  V30 2588 H 262.623 -0.659315 4.1621 0
M  V30 2589 H 261.347 -1.19352 3.04011 0
M  V30 2590 H 260.006 0.874609 3.56014 0
M  V30 2591 H 259.654 -1.22056 4.87966 0
M  V30 2592 H 259.354 0.228497 5.87156 0
M  V30 2593 H 260.878 -0.683072 6.06767 0
M  V30 2594 H 262.292 1.52307 5.52698 0
M  V30 2595 H 260.689 2.3142 5.53683 0
M  V30 2596 H 261.759 2.52581 4.13921 0
M  V30 2597 N 263.102 -1.41638 0.69111 0
M  V30 2598 C 264.05 -2.32597 0.0115199 0
M  V30 2599 C 265.044 -1.5072 -0.773296 0
M  V30 2600 O 266.25 -1.66685 -0.67942 0
M  V30 2601 H 262.625 -0.751849 -0.0150746 0
M  V30 2602 H 264.596 -2.87593 0.795791 0
M  V30 2603 C 263.345 -3.35467 -0.914172 0
M  V30 2604 H 262.668 -3.9852 -0.319687 0
M  V30 2605 H 264.108 -4.01662 -1.35808 0
M  V30 2606 C 262.567 -2.69004 -2.02826 0
M  V30 2607 O 263.097 -2.53444 -3.11655 0
M  V30 2608 N 261.303 -2.2777 -1.80469 0
M  V30 2609 H 260.85 -2.40626 -0.919615 0
M  V30 2610 H 260.808 -1.83635 -2.55197 0
M  V30 2611 N 264.58 -0.43555 -1.51462 0
M  V30 2612 C 265.826 0.131709 -2.02372 0
M  V30 2613 C 266.159 1.42516 -1.3192 0
M  V30 2614 O 265.434 1.89606 -0.433573 0
M  V30 2615 C 265.717 0.352301 -3.58373 0
M  V30 2616 C 265.57 -0.959676 -4.39443 0
M  V30 2617 C 266.889 1.12286 -4.25535 0
M  V30 2618 H 264.008 0.0463936 -0.735538 0
M  V30 2619 H 266.65 -0.574197 -1.81116 0
M  V30 2620 H 264.8 0.9536 -3.76615 0
M  V30 2621 H 266.472 -1.59482 -4.32855 0
M  V30 2622 H 264.715 -1.56468 -4.04599 0
M  V30 2623 H 265.386 -0.759394 -5.46752 0
M  V30 2624 H 267.862 0.613545 -4.11552 0
M  V30 2625 H 266.738 1.24598 -5.34571 0
M  V30 2626 H 266.999 2.15048 -3.86273 0
M  V30 2627 N 266.058 1.56714 -0.166846 0
M  V30 2628 C 267.286 2.0112 0.485644 0
M  V30 2629 C 267.701 1.04705 1.57106 0
M  V30 2630 O 267.058 0.0471923 1.82439 0
M  V30 2631 C 267.109 3.45361 1.06808 0
M  V30 2632 O 266.83 4.38092 0.0259995 0
M  V30 2633 C 268.331 4.05145 1.79924 0
M  V30 2634 H 265.551 0.65931 0.124704 0
M  V30 2635 H 268.095 2.02746 -0.267262 0
M  V30 2636 H 266.25 3.44524 1.7715 0
M  V30 2637 H 266.664 5.22519 0.455398 0
M  V30 2638 H 268.138 5.08009 2.15942 0
M  V30 2639 H 268.615 3.46982 2.69258 0
M  V30 2640 H 269.221 4.09672 1.14234 0
M  V30 2641 N 267.536 -0.106894 1.57237 0
M  V30 2642 C 268.446 -1.14911 2.0453 0
M  V30 2643 C 269.462 -1.44592 0.96795 0
M  V30 2644 O 270.638 -1.55468 1.2803 0
M  V30 2645 C 267.703 -2.45272 2.45036 0
M  V30 2646 C 266.764 -2.22879 3.66911 0
M  V30 2647 C 265.997 -3.47024 4.05475 0
M  V30 2648 O 266.22 -4.54804 3.44252 0
M  V30 2649 O 265.154 -3.3731 4.98504 0
M  V30 2650 H 268.98 -0.777461 2.9358 0
M  V30 2651 H 266.565 -0.318563 1.45964 0
M  V30 2652 H 268.447 -3.22055 2.71769 0
M  V30 2653 H 267.122 -2.81886 1.59129 0
M  V30 2654 H 266.029 -1.43915 3.45311 0
M  V30 2655 H 267.362 -1.91163 4.53561 0
M  V30 2656 N 269.014 -1.53014 -0.377408 0
M  V30 2657 C 270.291 -1.59215 -1.13622 0
M  V30 2658 C 270.671 -0.392407 -2.07421 0
M  V30 2659 O 270.019 0.618342 -2.19975 0
M  V30 2660 C 270.229 -2.93669 -1.88573 0
M  V30 2661 C 271.577 -3.47822 -2.43526 0
M  V30 2662 O 272.601 -2.9562 -1.98715 0
M  V30 2663 O 271.46 -4.39055 -3.25412 0
M  V30 2664 H 268.554 -0.642625 -0.52054 0
M  V30 2665 H 271.1 -1.65353 -0.381625 0
M  V30 2666 H 269.872 -3.7243 -1.20048 0
M  V30 2667 H 269.495 -2.90968 -2.70968 0
M  V30 2668 N 270.492 0.636531 -1.44174 0
M  V30 2669 C 271.442 1.74233 -1.47061 0
M  V30 2670 C 272.426 1.57331 -0.337034 0
M  V30 2671 O 273.618 1.67159 -0.581973 0
M  V30 2672 C 270.747 3.12897 -1.41246 0
M  V30 2673 C 269.833 3.35288 -2.59698 0
M  V30 2674 N 270.224 3.2807 -3.84972 0
M  V30 2675 C 268.522 3.66065 -2.54778 0
M  V30 2676 C 269.223 3.51001 -4.63867 0
M  V30 2677 N 268.199 3.73616 -3.94857 0
M  V30 2678 H 272.001 1.67103 -2.41773 0
M  V30 2679 H 269.515 0.838806 -1.3906 0
M  V30 2680 H 271.512 3.92189 -1.41398 0
M  V30 2681 H 270.172 3.21197 -0.47569 0
M  V30 2682 H 271.183 3.07109 -4.17019 0
M  V30 2683 H 267.86 3.81379 -1.6987 0
M  V30 2684 H 269.25 3.51059 -5.72894 0
M  V30 2685 N 271.97 1.30982 0.876444 0
M  V30 2686 C 272.903 1.12414 1.98591 0
M  V30 2687 C 273.881 0.0294078 1.62573 0
M  V30 2688 O 275.065 0.184598 1.87594 0
M  V30 2689 C 272.192 0.716276 3.3104 0
M  V30 2690 C 271.238 1.81311 3.86042 0
M  V30 2691 S 272.071 3.41727 4.1229 0
M  V30 2692 C 273.227 3.02863 5.47745 0
M  V30 2693 H 273.46 2.06338 2.14037 0
M  V30 2694 H 270.993 1.15393 1.02586 0
M  V30 2695 H 272.951 0.487697 4.07593 0
M  V30 2696 H 271.612 -0.203749 3.13438 0
M  V30 2697 H 270.805 1.48021 4.81774 0
M  V30 2698 H 270.407 1.99641 3.16259 0
M  V30 2699 H 272.699 2.51353 6.29148 0
M  V30 2700 H 273.642 3.97533 5.8598 0
M  V30 2701 H 274.05 2.40487 5.10711 0
M  V30 2702 N 273.449 -1.08991 1.13837 0
M  V30 2703 C 274.726 -1.77863 0.813876 0
M  V30 2704 C 275.106 -1.99375 -0.693746 0
M  V30 2705 O 274.454 -1.59875 -1.63255 0
M  V30 2706 C 274.664 -3.0986 1.60586 0
M  V30 2707 C 276.012 -3.84493 1.8014 0
M  V30 2708 O 277.036 -3.19624 1.57222 0
M  V30 2709 O 275.895 -5.00957 2.18413 0
M  V30 2710 H 272.989 -0.771589 0.297624 0
M  V30 2711 H 275.535 -1.15507 1.24323 0
M  V30 2712 H 274.307 -2.89715 2.63022 0
M  V30 2713 H 273.93 -3.79942 1.17173 0
M  V30 2714 N 274.927 -0.932562 -1.27047 0
M  V30 2715 C 276.343 -0.633544 -1.46487 0
M  V30 2716 C 276.543 0.815746 -1.84249 0
M  V30 2717 O 275.599 1.59319 -1.95892 0
M  V30 2718 C 276.912 -1.58758 -2.55375 0
M  V30 2719 C 278.46 -1.59634 -2.69232 0
M  V30 2720 C 278.935 -2.53747 -3.81283 0
M  V30 2721 N 280.426 -2.51982 -3.88664 0
M  V30 2722 C 281.161 -3.21491 -4.74796 0
M  V30 2723 N 280.657 -4.00395 -5.65381 0
M  V30 2724 N 282.45 -3.10485 -4.68568 0
M  V30 2725 H 274.601 -1.86946 -1.00821 0
M  V30 2726 H 276.864 -0.802897 -0.504044 0
M  V30 2727 H 276.57 -2.62172 -2.34432 0
M  V30 2728 H 276.444 -1.33301 -3.52861 0
M  V30 2729 H 278.831 -0.569488 -2.89553 0
M  V30 2730 H 278.912 -1.89142 -1.72218 0
M  V30 2731 H 278.556 -3.56545 -3.61715 0
M  V30 2732 H 278.486 -2.21532 -4.77735 0
M  V30 2733 H 280.977 -1.94681 -3.23895 0
M  V30 2734 H 281.29 -4.50406 -6.27976 0
M  V30 2735 H 279.635 -4.04498 -5.65161 0
M  V30 2736 H 282.826 -2.48331 -3.96799 0
M  V30 2737 H 282.999 -3.64925 -5.35475 0
M  V30 2738 N 276.405 1.4127 -0.698611 0
M  V30 2739 C 277.635 2.05205 -0.239644 0
M  V30 2740 C 278.043 1.52684 1.11733 0
M  V30 2741 O 277.386 0.671222 1.70998 0
M  V30 2742 C 277.448 3.59289 -0.123126 0
M  V30 2743 C 277.112 4.34619 -1.41263 0
M  V30 2744 C 278.109 4.63701 -2.35111 0
M  V30 2745 C 275.794 4.73837 -1.66684 0
M  V30 2746 C 277.788 5.30966 -3.52639 0
M  V30 2747 C 275.475 5.40837 -2.84498 0
M  V30 2748 C 276.473 5.69329 -3.77298 0
M  V30 2749 O 276.161 6.34949 -4.93047 0
M  V30 2750 H 275.893 0.66723 -0.108537 0
M  V30 2751 H 278.447 1.81974 -0.952602 0
M  V30 2752 H 276.677 3.81272 0.645628 0
M  V30 2753 H 278.366 4.04797 0.299056 0
M  V30 2754 H 279.132 4.33882 -2.16729 0
M  V30 2755 H 275.011 4.51039 -0.953135 0
M  V30 2756 H 278.555 5.53121 -4.25091 0
M  V30 2757 H 274.452 5.70075 -3.02795 0
M  V30 2758 H 275.22 6.53445 -4.92902 0
M  V30 2759 N 277.883 0.443576 1.51229 0
M  V30 2760 C 279.294 -0.0180867 1.86691 0
M  V30 2761 C 279.645 -1.41384 1.36033 0
M  V30 2762 O 278.77 -2.04291 0.713722 0
M  V30 2763 C 279.365 -0.039597 3.38777 0
M  V30 2764 C 277.924 -0.445692 3.73752 0
M  V30 2765 C 277.071 0.357584 2.74985 0
M  V30 2766 H 280.022 0.659138 1.44364 0
M  V30 2767 H 280.043 -0.847761 3.70936 0
M  V30 2768 H 279.555 0.976382 3.75617 0
M  V30 2769 H 277.656 -1.46704 3.42503 0
M  V30 2770 H 277.769 -0.166155 4.78812 0
M  V30 2771 H 276.133 -0.184973 2.54027 0
M  V30 2772 H 276.916 1.37256 3.14668 0
M  V30 2773 N 279.361 -1.56624 0.175154 0
M  V30 2774 C 280.608 -1.96999 -0.468811 0
M  V30 2775 C 280.936 -1.06129 -1.62994 0
M  V30 2776 O 280.191 -0.0961771 -1.95464 0
M  V30 2777 C 280.49 -3.43419 -0.989864 0
M  V30 2778 C 280.156 -4.50866 0.0557687 0
M  V30 2779 C 278.818 -4.79975 0.343134 0
M  V30 2780 C 281.17 -5.15551 0.765308 0
M  V30 2781 C 278.498 -5.71066 1.34536 0
M  V30 2782 C 280.85 -6.07724 1.75654 0
M  V30 2783 C 279.514 -6.35199 2.05132 0
M  V30 2784 H 278.784 -0.720869 -0.17155 0
M  V30 2785 H 281.431 -1.89616 0.267924 0
M  V30 2786 H 279.736 -3.47772 -1.80449 0
M  V30 2787 H 281.433 -3.72002 -1.49719 0
M  V30 2788 H 278.023 -4.28229 -0.178381 0
M  V30 2789 H 282.207 -4.9317 0.556513 0
M  V30 2790 H 277.463 -5.90635 1.57988 0
M  V30 2791 H 281.637 -6.56912 2.31169 0
M  V30 2792 H 279.264 -7.05584 2.8294 0
M  V30 2793 N 280.839 0.0985539 -1.57292 0
M  V30 2794 C 282.087 0.801092 -1.85545 0
M  V30 2795 C 282.408 1.79438 -0.763353 0
M  V30 2796 O 281.678 1.94763 0.21073 0
M  V30 2797 H 280.258 0.29884 -0.684619 0
M  V30 2798 H 282.92 0.0810064 -1.94732 0
M  V30 2799 H 282.016 1.3338 -2.82163 0
M  V30 2800 N 282.317 1.53212 0.369288 0
M  V30 2801 C 283.247 1.82365 1.45826 0
M  V30 2802 C 284.228 0.676907 1.56051 0
M  V30 2803 O 285.413 0.926401 1.70679 0
M  V30 2804 C 282.543 2.01023 2.83208 0
M  V30 2805 C 281.497 3.1678 2.8781 0
M  V30 2806 C 280.823 3.20724 4.27832 0
M  V30 2807 C 282.123 4.55447 2.55667 0
M  V30 2808 H 283.817 2.73559 1.21678 0
M  V30 2809 H 281.363 1.3163 0.583911 0
M  V30 2810 H 283.316 2.20001 3.59413 0
M  V30 2811 H 282.04 1.06536 3.08736 0
M  V30 2812 H 280.699 2.97616 2.14056 0
M  V30 2813 H 280.347 2.23882 4.50429 0
M  V30 2814 H 280.047 3.98496 4.31827 0
M  V30 2815 H 281.571 3.41881 5.05915 0
M  V30 2816 H 282.985 4.74611 3.21586 0
M  V30 2817 H 281.382 5.35432 2.70984 0
M  V30 2818 H 282.452 4.60812 1.5093 0
M  V30 2819 N 283.795 -0.628877 1.44509 0
M  V30 2820 C 284.727 -1.754 1.47538 0
M  V30 2821 C 285.74 -1.58575 0.368506 0
M  V30 2822 O 286.929 -1.66847 0.634376 0
M  V30 2823 C 284.029 -3.1315 1.29577 0
M  V30 2824 C 283.202 -3.56413 2.53551 0
M  V30 2825 C 282.261 -4.7305 2.30457 0
M  V30 2826 O 281.287 -4.81247 3.03957 0
M  V30 2827 N 282.489 -5.64903 1.3366 0
M  V30 2828 H 285.254 -1.73272 2.44534 0
M  V30 2829 H 282.815 -0.813512 1.39977 0
M  V30 2830 H 284.807 -3.88902 1.11971 0
M  V30 2831 H 283.377 -3.09908 0.409371 0
M  V30 2832 H 282.597 -2.70847 2.86419 0
M  V30 2833 H 283.885 -3.82071 3.36005 0
M  V30 2834 H 283.283 -5.60975 0.729604 0
M  V30 2835 H 281.84 -6.40275 1.22032 0
M  V30 2836 N 285.273 -1.31445 -0.869486 0
M  V30 2837 C 286.205 -1.14955 -1.98287 0
M  V30 2838 C 287.218 -0.0885037 -1.62559 0
M  V30 2839 O 288.407 -0.336044 -1.75308 0
M  V30 2840 C 285.507 -0.734255 -3.3085 0
M  V30 2841 C 284.68 -1.88042 -3.94917 0
M  V30 2842 C 283.739 -1.4511 -5.05796 0
M  V30 2843 O 282.765 -2.16082 -5.2659 0
M  V30 2844 N 283.967 -0.338763 -5.79511 0
M  V30 2845 H 286.732 -2.10856 -2.12979 0
M  V30 2846 H 284.293 -1.23786 -1.04349 0
M  V30 2847 H 286.285 -0.42975 -4.02412 0
M  V30 2848 H 284.855 0.133158 -3.12316 0
M  V30 2849 H 284.075 -2.35222 -3.1633 0
M  V30 2850 H 285.363 -2.6481 -4.34457 0
M  V30 2851 H 284.761 0.252274 -5.65137 0
M  V30 2852 H 283.318 -0.0937925 -6.51733 0
M  V30 2853 N 286.751 1.08385 -1.14413 0
M  V30 2854 C 287.981 1.8425 -0.934644 0
M  V30 2855 C 288.389 1.81907 0.520234 0
M  V30 2856 O 287.732 1.22126 1.37226 0
M  V30 2857 C 287.794 3.32853 -1.35828 0
M  V30 2858 C 287.458 3.5893 -2.82875 0
M  V30 2859 C 288.455 3.53756 -3.80989 0
M  V30 2860 C 286.14 3.86934 -3.20293 0
M  V30 2861 C 288.134 3.76216 -5.14529 0
M  V30 2862 C 285.821 4.09047 -4.54008 0
M  V30 2863 C 286.819 4.03682 -5.50936 0
M  V30 2864 O 286.507 4.25214 -6.82238 0
M  V30 2865 H 286.239 0.588502 -0.332628 0
M  V30 2866 H 288.793 1.37792 -1.52324 0
M  V30 2867 H 287.023 3.8007 -0.713019 0
M  V30 2868 H 288.712 3.90154 -1.11957 0
M  V30 2869 H 289.478 3.32135 -3.53428 0
M  V30 2870 H 285.357 3.9023 -2.45442 0
M  V30 2871 H 288.901 3.71943 -5.90173 0
M  V30 2872 H 284.798 4.30151 -4.8129 0
M  V30 2873 H 285.566 4.42619 -6.88499 0
M  V30 2874 N 288.23 0.939286 1.26551 0
M  V30 2875 C 289.646 0.641304 1.46149 0
M  V30 2876 C 289.846 -0.805964 1.84679 0
M  V30 2877 O 288.902 -1.58278 1.96734 0
M  V30 2878 C 290.215 1.6011 2.54529 0
M  V30 2879 C 291.763 1.6106 2.68382 0
M  V30 2880 C 292.238 2.55765 3.79932 0
M  V30 2881 N 293.729 2.5404 3.87322 0
M  V30 2882 C 294.464 3.24004 4.73085 0
M  V30 2883 N 293.96 4.03388 5.63249 0
M  V30 2884 N 295.753 3.12965 4.66914 0
M  V30 2885 H 287.904 1.87478 0.998285 0
M  V30 2886 H 290.167 0.805559 0.499779 0
M  V30 2887 H 289.873 2.63412 2.33039 0
M  V30 2888 H 289.747 1.35171 3.52149 0
M  V30 2889 H 292.134 0.584835 2.89247 0
M  V30 2890 H 292.215 1.90053 1.71212 0
M  V30 2891 H 291.859 3.58458 3.5982 0
M  V30 2892 H 291.789 2.24063 4.76554 0
M  V30 2893 H 294.28 1.96396 3.22858 0
M  V30 2894 H 294.593 4.5373 6.25579 0
M  V30 2895 H 292.938 4.07489 5.63008 0
M  V30 2896 H 296.129 2.50432 3.95476 0
M  V30 2897 H 296.302 3.67759 5.33533 0
M  V30 2898 N 289.708 -1.40897 0.706093 0
M  V30 2899 C 290.671 -2.29131 0.0562841 0
M  V30 2900 C 291.671 -1.44901 -0.697166 0
M  V30 2901 O 292.861 -1.65926 -0.530484 0
M  V30 2902 C 289.993 -3.27957 -0.93043 0
M  V30 2903 H 291.186 -2.88091 0.833284 0
M  V30 2904 H 288.739 -1.4906 0.470192 0
M  V30 2905 H 289.474 -2.73997 -1.73482 0
M  V30 2906 H 289.259 -3.90124 -0.393166 0
M  V30 2907 H 290.749 -3.94049 -1.38256 0
M  V30 2908 N 291.186 -0.45159 -1.50991 0
M  V30 2909 C 292.149 0.341117 -2.26647 0
M  V30 2910 C 293.149 0.937422 -1.30649 0
M  V30 2911 O 294.339 0.809644 -1.54241 0
M  V30 2912 C 291.471 1.48398 -3.06905 0
M  V30 2913 H 292.664 -0.322117 -2.98165 0
M  V30 2914 H 290.217 -0.205122 -1.54948 0
M  V30 2915 H 290.952 2.18284 -2.39838 0
M  V30 2916 H 290.737 1.06241 -3.77432 0
M  V30 2917 H 292.227 2.04367 -3.64176 0
M  V30 2918 N 292.664 1.56529 -0.183458 0
M  V30 2919 C 293.611 2.18546 0.742055 0
M  V30 2920 C 294.581 1.12912 1.2182 0
M  V30 2921 O 295.766 1.41115 1.28418 0
M  V30 2922 C 292.906 2.83977 1.96089 0
M  V30 2923 C 292.019 4.04105 1.52719 0
M  V30 2924 C 291.154 4.57427 2.70063 0
M  V30 2925 C 290.193 5.69938 2.23243 0
M  V30 2926 N 289.33 6.17717 3.33722 0
M  V30 2927 H 294.17 2.97284 0.206432 0
M  V30 2928 H 291.707 1.46823 0.0901571 0
M  V30 2929 H 293.665 3.20077 2.67594 0
M  V30 2930 H 292.295 2.07822 2.47002 0
M  V30 2931 H 291.347 3.73745 0.708436 0
M  V30 2932 H 292.659 4.85513 1.1436 0
M  V30 2933 H 291.813 4.95772 3.49708 0
M  V30 2934 H 290.552 3.75101 3.11689 0
M  V30 2935 H 289.557 5.31133 1.42048 0
M  V30 2936 H 290.782 6.54073 1.82661 0
M  V30 2937 H 288.728 5.38317 3.74902 0
M  V30 2938 H 288.645 6.94146 2.99495 0
M  V30 2939 H 289.913 6.60713 4.13616 0
M  V30 2940 N 294.142 -0.090211 1.57342 0
M  V30 2941 C 295.072 -1.10976 2.05443 0
M  V30 2942 C 296.053 -1.41482 0.944284 0
M  V30 2943 O 297.238 -1.51428 1.21586 0
M  V30 2944 C 294.368 -2.42831 2.48295 0
M  V30 2945 C 293.322 -2.26721 3.63018 0
M  V30 2946 C 292.648 -3.63796 3.91863 0
M  V30 2947 C 293.948 -1.7037 4.93732 0
M  V30 2948 H 295.642 -0.709564 2.9087 0
M  V30 2949 H 293.188 -0.339874 1.39932 0
M  V30 2950 H 295.141 -3.14431 2.80555 0
M  V30 2951 H 293.865 -2.84795 1.59873 0
M  V30 2952 H 292.524 -1.57565 3.31012 0
M  V30 2953 H 292.172 -4.03297 3.00601 0
M  V30 2954 H 291.872 -3.53861 4.69101 0
M  V30 2955 H 293.396 -4.36855 4.26603 0
M  V30 2956 H 294.81 -2.31816 5.24342 0
M  V30 2957 H 293.207 -1.71181 5.75167 0
M  V30 2958 H 294.277 -0.663542 4.80339 0
M  V30 2959 N 295.62 -1.53406 -0.361157 0
M  V30 2960 C 297.036 -1.43277 -0.703124 0
M  V30 2961 C 297.236 -0.575384 -1.9311 0
M  V30 2962 O 296.292 -0.0595362 -2.5243 0
M  V30 2963 C 297.605 -2.8653 -0.9122 0
M  V30 2964 C 299.153 -2.96191 -1.01193 0
M  V30 2965 C 299.628 -4.40514 -1.25345 0
M  V30 2966 N 301.119 -4.43962 -1.32105 0
M  V30 2967 C 301.854 -5.52746 -1.5251 0
M  V30 2968 N 301.35 -6.71567 -1.70203 0
M  V30 2969 N 303.143 -5.40331 -1.54916 0
M  V30 2970 H 295.294 -2.07654 0.446475 0
M  V30 2971 H 297.557 -0.937944 0.137715 0
M  V30 2972 H 297.263 -3.51605 -0.0816414 0
M  V30 2973 H 297.137 -3.30441 -1.81903 0
M  V30 2974 H 299.524 -2.31266 -1.83303 0
M  V30 2975 H 299.605 -2.55667 -0.0823929 0
M  V30 2976 H 299.249 -5.06014 -0.437346 0
M  V30 2977 H 299.179 -4.78614 -2.19627 0
M  V30 2978 H 301.67 -3.58332 -1.20028 0
M  V30 2979 H 301.983 -7.50241 -1.85359 0
M  V30 2980 H 300.328 -6.74545 -1.67373 0
M  V30 2981 H 303.519 -4.46465 -1.40663 0
M  V30 2982 H 303.692 -6.25173 -1.70477 0
M  V30 2983 N 297.098 0.621204 -1.44841 0
M  V30 2984 C 298.347 1.37658 -1.47422 0
M  V30 2985 C 298.66 1.95264 -0.114629 0
M  V30 2986 O 299.866 2.71494 -0.0180199 0
M  V30 2987 C 298.322 2.49285 -2.59586 0
M  V30 2988 C 297.93 1.98149 -4.01797 0
M  V30 2989 C 299.674 3.26409 -2.71399 0
M  V30 2990 C 297.581 3.07178 -5.05367 0
M  V30 2991 H 296.511 0.517344 -0.548517 0
M  V30 2992 H 299.162 0.667257 -1.70938 0
M  V30 2993 H 297.544 3.22839 -2.29328 0
M  V30 2994 H 298.718 1.31395 -4.41669 0
M  V30 2995 H 297.033 1.33812 -3.94314 0
M  V30 2996 H 299.63 4.07706 -3.45948 0
M  V30 2997 H 299.973 3.76535 -1.77559 0
M  V30 2998 H 300.506 2.5995 -3.01116 0
M  V30 2999 H 297.245 2.61985 -6.00869 0
M  V30 3000 H 296.765 3.72542 -4.70077 0
M  V30 3001 H 298.444 3.71789 -5.29511 0
M  V30 3002 N 298.576 1.31904 0.862503 0
M  V30 3003 C 299.806 1.24817 1.64634 0
M  V30 3004 C 300.214 -0.187579 1.88268 0
M  V30 3005 O 299.557 -1.13253 1.44635 0
M  V30 3006 C 299.619 1.92996 3.03303 0
M  V30 3007 C 299.283 3.42336 3.02746 0
M  V30 3008 C 300.28 4.37956 2.80162 0
M  V30 3009 C 297.965 3.84147 3.2363 0
M  V30 3010 C 299.959 5.73361 2.78453 0
M  V30 3011 C 297.646 5.19663 3.21549 0
M  V30 3012 C 298.644 6.14081 2.98988 0
M  V30 3013 O 298.332 7.47118 2.96766 0
M  V30 3014 H 298.064 0.432222 0.519769 0
M  V30 3015 H 300.618 1.7445 1.08427 0
M  V30 3016 H 298.848 1.37922 3.61268 0
M  V30 3017 H 300.537 1.79723 3.63943 0
M  V30 3018 H 301.303 4.06981 2.63802 0
M  V30 3019 H 297.182 3.11083 3.40218 0
M  V30 3020 H 300.726 6.4703 2.60763 0
M  V30 3021 H 296.623 5.5027 3.37451 0
M  V30 3022 H 297.391 7.56382 3.12775 0
M  V30 3023 N 300.054 -1.07777 1.14986 0
M  V30 3024 C 300.964 -2.18404 0.856546 0
M  V30 3025 C 301.98 -1.73211 -0.165485 0
M  V30 3026 O 303.156 -2.01399 0.00755219 0
M  V30 3027 C 300.221 -3.44977 0.34526 0
M  V30 3028 C 299.282 -4.0476 1.43065 0
M  V30 3029 C 298.515 -5.25291 0.943663 0
M  V30 3030 O 298.738 -5.70004 -0.212426 0
M  V30 3031 O 297.672 -5.76638 1.72547 0
M  V30 3032 H 301.498 -2.45978 1.78125 0
M  V30 3033 H 299.083 -1.17033 0.928631 0
M  V30 3034 H 300.965 -4.21348 0.0663671 0
M  V30 3035 H 299.64 -3.18965 -0.551631 0
M  V30 3036 H 298.547 -3.29949 1.76309 0
M  V30 3037 H 299.88 -4.35035 2.30229 0
M  V30 3038 N 301.532 -0.945985 -1.26051 0
M  V30 3039 C 302.48 -0.450259 -2.282 0
M  V30 3040 C 303.474 0.47497 -1.62605 0
M  V30 3041 O 304.68 0.352653 -1.76512 0
M  V30 3042 H 301.055 -0.127081 -0.741184 0
M  V30 3043 H 303.026 -1.32422 -2.67408 0
M  V30 3044 C 301.775 0.26467 -3.46691 0
M  V30 3045 H 301.098 -0.438123 -3.97392 0
M  V30 3046 H 302.538 0.575678 -4.20074 0
M  V30 3047 C 300.997 1.48416 -3.02447 0
M  V30 3048 O 301.527 2.58227 -3.07704 0
M  V30 3049 N 299.733 1.34243 -2.57735 0
M  V30 3050 H 299.28 0.448994 -2.53657 0
M  V30 3051 H 299.238 2.15957 -2.28495 0
M  V30 3052 N 303.011 1.40521 -0.713556 0
M  V30 3053 C 303.974 2.29098 -0.0684347 0
M  V30 3054 C 304.974 1.45268 0.689472 0
M  V30 3055 O 306.164 1.66205 0.521677 0
M  V30 3056 C 303.296 3.28446 0.913024 0
M  V30 3057 H 304.489 2.87645 -0.84855 0
M  V30 3058 H 302.042 1.48809 -0.47809 0
M  V30 3059 H 302.777 2.74913 1.72027 0
M  V30 3060 H 302.562 3.90327 0.372472 0
M  V30 3061 H 304.052 3.94777 1.36165 0
M  V30 3062 N 304.489 0.459591 1.5075 0
M  V30 3063 C 305.436 -0.340524 2.28274 0
M  V30 3064 C 306.406 -0.997371 1.32822 0
M  V30 3065 O 307.591 -1.01202 1.61749 0
M  V30 3066 C 304.731 -1.42317 3.14388 0
M  V30 3067 C 303.844 -0.782251 4.24859 0
M  V30 3068 C 302.979 -1.84182 4.98247 0
M  V30 3069 C 302.018 -1.18053 6.00608 0
M  V30 3070 N 301.155 -2.18244 6.67319 0
M  V30 3071 H 305.995 0.326899 2.96202 0
M  V30 3072 H 303.532 0.173057 1.46078 0
M  V30 3073 H 305.49 -2.06241 3.62658 0
M  V30 3074 H 304.12 -2.05992 2.4853 0
M  V30 3075 H 303.172 -0.0307404 3.80388 0
M  V30 3076 H 304.484 -0.259663 4.98124 0
M  V30 3077 H 303.638 -2.55714 5.50177 0
M  V30 3078 H 302.377 -2.39819 4.24662 0
M  V30 3079 H 301.382 -0.450776 5.47949 0
M  V30 3080 H 302.607 -0.631202 6.7616 0
M  V30 3081 H 300.553 -2.72919 5.96533 0
M  V30 3082 H 300.47 -1.70938 7.36421 0
M  V30 3083 H 301.738 -2.89191 7.23871 0
M  V30 3084 N 305.967 -1.56429 0.191757 0
M  V30 3085 C 307.213 -1.97777 -0.448554 0
M  V30 3086 C 307.546 -1.07847 -1.61501 0
M  V30 3087 O 306.821 -0.129774 -1.94067 0
M  V30 3088 C 307.104 -3.48362 -0.911906 0
M  V30 3089 C 306.957 -4.4907 0.256136 0
M  V30 3090 C 308.276 -4.02561 -1.77857 0
M  V30 3091 H 305.395 -0.719071 -0.161572 0
M  V30 3092 H 308.037 -1.87896 0.282007 0
M  V30 3093 H 306.187 -3.56914 -1.53442 0
M  V30 3094 H 307.859 -4.5256 0.893733 0
M  V30 3095 H 306.102 -4.24181 0.908436 0
M  V30 3096 H 306.773 -5.51889 -0.11053 0
M  V30 3097 H 309.249 -3.96767 -1.25359 0
M  V30 3098 H 308.125 -5.08301 -2.07174 0
M  V30 3099 H 308.386 -3.47616 -2.73158 0
M  V30 3100 N 307.445 0.0818655 -1.57387 0
M  V30 3101 C 308.685 0.788375 -1.88584 0
M  V30 3102 C 309.049 1.75248 -0.784351 0
M  V30 3103 O 310.25 2.50334 -0.979105 0
M  V30 3104 C 308.521 1.48654 -3.25018 0
M  V30 3105 S 310.08 2.22951 -3.7794 0
M  V30 3106 H 306.898 0.262383 -0.660815 0
M  V30 3107 H 309.5 0.0448995 -1.95448 0
M  V30 3108 H 308.204 0.770919 -4.03094 0
M  V30 3109 H 307.735 2.26965 -3.21326 0
M  V30 3110 H 309.75 3.49309 -3.52417 0
M  V30 3111 N 308.923 1.53595 0.353017 0
M  V30 3112 C 310.169 1.70638 1.09593 0
M  V30 3113 C 310.502 0.463286 1.88593 0
M  V30 3114 O 309.777 -0.539597 1.86865 0
M  V30 3115 C 310.06 2.96406 2.04489 0
M  V30 3116 C 309.913 4.30901 1.29014 0
M  V30 3117 C 311.232 3.17812 3.0444 0
M  V30 3118 H 308.351 0.620913 0.397034 0
M  V30 3119 H 310.993 1.86254 0.375446 0
M  V30 3120 H 309.143 2.83223 2.65927 0
M  V30 3121 H 310.815 4.55917 0.702638 0
M  V30 3122 H 309.058 4.29741 0.592071 0
M  V30 3123 H 309.729 5.1506 1.98537 0
M  V30 3124 H 312.205 3.30263 2.53112 0
M  V30 3125 H 311.081 4.07223 3.6805 0
M  V30 3126 H 311.342 2.33669 3.75301 0
M  V30 3127 N 310.401 -0.613514 1.45168 0
M  V30 3128 C 311.647 -1.37471 1.49096 0
M  V30 3129 C 311.98 -1.93765 0.129901 0
M  V30 3130 O 311.255 -1.74707 -0.854858 0
M  V30 3131 C 311.538 -2.52701 2.56542 0
M  V30 3132 C 311.391 -2.01643 4.0207 0
M  V30 3133 C 312.71 -3.54849 2.60327 0
M  V30 3134 H 309.829 -0.498502 0.54283 0
M  V30 3135 H 312.471 -0.692125 1.76945 0
M  V30 3136 H 310.621 -3.10931 2.32926 0
M  V30 3137 H 312.293 -1.48108 4.36877 0
M  V30 3138 H 310.536 -1.32688 4.13009 0
M  V30 3139 H 311.207 -2.84681 4.72928 0
M  V30 3140 H 313.683 -3.0645 2.81474 0
M  V30 3141 H 312.559 -4.32973 3.37381 0
M  V30 3142 H 312.82 -4.10079 1.6519 0
M  V30 3143 N 311.879 -1.3236 -0.855495 0
M  V30 3144 C 312.827 -1.2118 -1.9854 0
M  V30 3145 C 313.821 -0.116788 -1.68997 0
M  V30 3146 O 315.027 -0.279657 -1.77814 0
M  V30 3147 H 311.402 -0.375608 -0.651477 0
M  V30 3148 H 313.373 -2.16743 -2.05098 0
M  V30 3149 C 312.122 -0.950849 -3.34446 0
M  V30 3150 H 311.445 -1.78563 -3.57708 0
M  V30 3151 H 312.885 -0.912863 -4.14057 0
M  V30 3152 C 311.344 0.346404 -3.35114 0
M  V30 3153 O 311.874 1.35855 -3.7803 0
M  V30 3154 N 310.08 0.36808 -2.88259 0
M  V30 3155 H 309.627 -0.456102 -2.5353 0
M  V30 3156 H 309.585 1.23591 -2.89089 0
M  V30 3157 N 313.357 1.07166 -1.15556 0
M  V30 3158 C 314.32 2.12589 -0.856644 0
M  V30 3159 C 315.32 1.6015 0.14444 0
M  V30 3160 O 316.51 1.7399 -0.0854163 0
M  V30 3161 C 313.642 3.39753 -0.279405 0
M  V30 3162 H 314.835 2.40539 -1.79112 0
M  V30 3163 H 312.388 1.23086 -0.963298 0
M  V30 3164 H 313.123 3.17447 0.663174 0
M  V30 3165 H 312.908 3.79117 -1.00063 0
M  V30 3166 H 314.398 4.17507 -0.0879113 0
M  V30 3167 N 314.835 0.952656 1.25548 0
M  V30 3168 C 316.112 0.523818 1.88456 0
M  V30 3169 C 316.492 -0.998871 1.85973 0
M  V30 3170 O 315.84 -1.86381 1.3219 0
M  V30 3171 C 316.05 1.0982 3.31271 0
M  V30 3172 C 317.398 1.17385 4.08051 0
M  V30 3173 O 318.422 1.04961 3.40384 0
M  V30 3174 O 317.281 1.36852 5.29088 0
M  V30 3175 H 314.375 0.172485 0.808813 0
M  V30 3176 H 316.921 1.04596 1.33633 0
M  V30 3177 H 315.693 2.1415 3.27499 0
M  V30 3178 H 315.316 0.559191 3.93648 0
M  V30 3179 N 316.313 -1.40141 0.720998 0
M  V30 3180 C 317.59 -1.94677 0.189757 0
M  V30 3181 C 317.97 -1.65879 -1.30566 0
M  V30 3182 O 317.318 -0.979391 -2.06447 0
M  V30 3183 C 317.528 -3.45279 0.508304 0
M  V30 3184 C 318.876 -4.22209 0.449934 0
M  V30 3185 O 319.9 -3.53413 0.444677 0
M  V30 3186 O 318.759 -5.44788 0.432189 0
M  V30 3187 H 315.853 -0.826459 0.0299026 0
M  V30 3188 H 318.399 -1.49719 0.7989 0
M  V30 3189 H 317.171 -3.59619 1.54239 0
M  V30 3190 H 316.794 -3.97386 -0.130525 0
M  V30 3191 N 317.792 -0.46758 -1.50504 0
M  V30 3192 C 318.755 0.317059 -2.26996 0
M  V30 3193 C 319.755 0.923513 -1.31635 0
M  V30 3194 O 320.945 0.793239 -1.55091 0
M  V30 3195 C 318.077 1.45134 -3.08462 0
M  V30 3196 H 319.27 -0.353723 -2.97807 0
M  V30 3197 H 316.823 -0.221545 -1.54722 0
M  V30 3198 H 317.558 2.15728 -2.4214 0
M  V30 3199 H 317.343 1.02232 -3.78538 0
M  V30 3200 H 318.833 2.00493 -3.66323 0
M  V30 3201 N 319.27 1.56325 -0.20005 0
M  V30 3202 C 320.2 2.22318 0.713916 0
M  V30 3203 C 321.181 1.18788 1.21752 0
M  V30 3204 O 322.366 1.47309 1.26545 0
M  V30 3205 C 319.496 2.88639 1.93144 0
M  V30 3206 C 318.45 3.98457 1.56255 0
M  V30 3207 C 317.776 4.51967 2.85709 0
M  V30 3208 C 319.076 5.16612 0.768747 0
M  V30 3209 H 320.77 2.98952 0.163755 0
M  V30 3210 H 318.316 1.43792 0.0773219 0
M  V30 3211 H 320.269 3.33491 2.57608 0
M  V30 3212 H 318.993 2.09419 2.50621 0
M  V30 3213 H 317.652 3.54305 0.941471 0
M  V30 3214 H 317.3 3.69503 3.41287 0
M  V30 3215 H 317 5.26071 2.6177 0
M  V30 3216 H 318.524 4.99523 3.51154 0
M  V30 3217 H 319.938 5.57977 1.3166 0
M  V30 3218 H 318.335 5.96812 0.627286 0
M  V30 3219 H 319.405 4.84358 -0.229168 0
M  V30 3220 N 320.748 -0.0735177 1.57428 0
M  V30 3221 C 321.976 -0.785969 1.9139 0
M  V30 3222 C 322.391 -1.71207 0.795847 0
M  V30 3223 O 321.748 -1.81033 -0.230915 0
M  V30 3224 C 321.799 -1.58107 3.25091 0
M  V30 3225 O 321.52 -0.6922 4.32597 0
M  V30 3226 C 323.021 -2.39467 3.73055 0
M  V30 3227 H 320.241 -0.223558 0.632663 0
M  V30 3228 H 322.785 -0.044302 2.04452 0
M  V30 3229 H 320.94 -2.27503 3.13562 0
M  V30 3230 H 321.354 -1.24504 5.09508 0
M  V30 3231 H 322.828 -2.90716 4.69242 0
M  V30 3232 H 323.305 -3.18913 3.01979 0
M  V30 3233 H 323.911 -1.7523 3.87523 0
M  V30 3234 N 322.226 -1.5378 -0.344866 0
M  V30 3235 C 323.159 -1.7649 -1.4466 0
M  V30 3236 C 324.137 -0.613954 -1.50563 0
M  V30 3237 O 325.321 -0.84896 -1.683 0
M  V30 3238 C 322.448 -1.86235 -2.82903 0
M  V30 3239 C 321.494 -3.08375 -2.94631 0
M  V30 3240 S 322.327 -4.67457 -2.61236 0
M  V30 3241 C 323.483 -4.80079 -4.0159 0
M  V30 3242 H 323.716 -2.69661 -1.2518 0
M  V30 3243 H 321.249 -1.44632 -0.540455 0
M  V30 3244 H 323.207 -1.92535 -3.62547 0
M  V30 3245 H 321.868 -0.940786 -2.9968 0
M  V30 3246 H 321.061 -3.11865 -3.95925 0
M  V30 3247 H 320.663 -3.00294 -2.22934 0
M  V30 3248 H 322.955 -4.61407 -4.96094 0
M  V30 3249 H 323.898 -5.82168 -4.03095 0
M  V30 3250 H 324.306 -4.08544 -3.89554 0
M  V30 3251 N 323.704 0.605807 -1.45491 0
M  V30 3252 C 325.115 1.18777 -1.44045 0
M  V30 3253 C 325.466 1.95471 -0.169001 0
M  V30 3254 O 324.591 2.0374 0.729324 0
M  V30 3255 C 325.186 2.16064 -2.60963 0
M  V30 3256 C 323.745 2.69633 -2.62631 0
M  V30 3257 C 322.892 1.45072 -2.36325 0
M  V30 3258 H 325.843 0.395017 -1.53705 0
M  V30 3259 H 325.864 2.9913 -2.35163 0
M  V30 3260 H 325.376 1.60217 -3.53486 0
M  V30 3261 H 323.477 3.29414 -1.74119 0
M  V30 3262 H 323.59 3.13944 -3.61906 0
M  V30 3263 H 321.954 1.74089 -1.85917 0
M  V30 3264 H 322.737 0.910899 -3.30995 0
M  V30 3265 N 325.182 1.32811 0.848464 0
M  V30 3266 C 326.431 1.23075 1.59798 0
M  V30 3267 C 326.744 -0.204419 1.94529 0
M  V30 3268 O 327.95 -0.423701 2.68173 0
M  V30 3269 C 326.406 2.15594 2.88179 0
M  V30 3270 C 326.014 3.64228 2.60849 0
M  V30 3271 C 327.758 2.14709 3.66197 0
M  V30 3272 C 325.665 4.48689 3.85269 0
M  V30 3273 H 324.595 0.457091 0.599653 0
M  V30 3274 H 327.246 1.57813 0.936342 0
M  V30 3275 H 325.628 1.73778 3.55833 0
M  V30 3276 H 326.802 4.14424 2.01467 0
M  V30 3277 H 325.117 3.67306 1.96151 0
M  V30 3278 H 327.714 2.75046 4.58534 0
M  V30 3279 H 328.057 1.13966 4.00397 0
M  V30 3280 H 328.59 2.54837 3.05455 0
M  V30 3281 H 325.329 5.5027 3.56207 0
M  V30 3282 H 324.849 4.03241 4.44024 0
M  V30 3283 H 326.528 4.62006 4.52946 0
M  V30 3284 N 326.66 -1.06551 1.16123 0
M  V30 3285 C 328.076 -1.3142 0.905585 0
M  V30 3286 C 328.276 -1.96571 -0.442964 0
M  V30 3287 O 327.332 -2.23068 -1.18308 0
M  V30 3288 C 328.645 -2.19741 2.05267 0
M  V30 3289 C 330.193 -2.33165 2.08813 0
M  V30 3290 C 330.668 -3.24838 3.22868 0
M  V30 3291 N 332.159 -3.32421 3.22568 0
M  V30 3292 C 332.894 -4.0344 4.0746 0
M  V30 3293 N 332.39 -4.77003 5.02434 0
M  V30 3294 N 334.183 -3.99464 3.95456 0
M  V30 3295 H 326.334 -0.626548 2.02949 0
M  V30 3296 H 328.597 -0.338777 0.8854 0
M  V30 3297 H 328.303 -1.79142 3.02657 0
M  V30 3298 H 328.177 -3.20313 1.99198 0
M  V30 3299 H 330.564 -2.73013 1.12018 0
M  V30 3300 H 330.645 -1.3227 2.18948 0
M  V30 3301 H 330.289 -2.85708 4.19921 0
M  V30 3302 H 330.219 -4.25707 3.0997 0
M  V30 3303 H 332.71 -2.79994 2.53795 0
M  V30 3304 H 333.023 -5.28712 5.63634 0
M  V30 3305 H 331.368 -4.75992 5.06415 0
M  V30 3306 H 334.559 -3.4111 3.20564 0
M  V30 3307 H 334.732 -4.54544 4.61837 0
M  V30 3308 N 328.138 -0.959301 -1.25041 0
M  V30 3309 C 329.386 -0.615393 -1.92503 0
M  V30 3310 C 329.707 0.850969 -1.75452 0
M  V30 3311 O 328.977 1.60658 -1.12098 0
M  V30 3312 H 327.557 -0.224613 -0.712431 0
M  V30 3313 H 330.219 -1.21855 -1.5211 0
M  V30 3314 H 329.315 -0.848738 -3.00338 0
M  V30 3315 N 329.616 1.39756 -0.72842 0
M  V30 3316 C 330.579 2.29012 -0.0927297 0
M  V30 3317 C 331.579 1.45992 0.674025 0
M  V30 3318 O 332.769 1.66749 0.50402 0
M  V30 3319 C 329.901 3.29396 0.878137 0
M  V30 3320 H 331.094 2.86729 -0.879011 0
M  V30 3321 H 328.647 1.48293 -0.493847 0
M  V30 3322 H 329.382 2.76722 1.69101 0
M  V30 3323 H 329.167 3.907 0.331051 0
M  V30 3324 H 330.657 3.96199 1.3197 0
M  V30 3325 N 331.094 0.475555 1.50254 0
M  V30 3326 C 332.371 -0.139685 1.95101 0
M  V30 3327 C 332.751 -1.56555 1.41611 0
M  V30 3328 O 332.099 -2.19956 0.618993 0
M  V30 3329 C 332.309 -0.0784298 3.48912 0
M  V30 3330 C 333.657 -0.265095 4.23772 0
M  V30 3331 O 334.681 -0.154808 3.55863 0
M  V30 3332 O 333.54 -0.488327 5.44314 0
M  V30 3333 H 330.634 -0.109236 0.819754 0
M  V30 3334 H 333.18 0.536276 1.61004 0
M  V30 3335 H 331.952 0.916918 3.80405 0
M  V30 3336 H 331.575 -0.795655 3.89558 0
M  V30 3337 N 332.573 -1.56217 0.208337 0
M  V30 3338 C 333.483 -2.23316 -0.718836 0
M  V30 3339 C 334.499 -1.23648 -1.22422 0
M  V30 3340 O 335.675 -1.56423 -1.26861 0
M  V30 3341 C 332.74 -2.88968 -1.91568 0
M  V30 3342 C 331.801 -4.03943 -1.45357 0
M  V30 3343 C 331.034 -4.66455 -2.59337 0
M  V30 3344 O 331.257 -4.27919 -3.77149 0
M  V30 3345 O 330.191 -5.55686 -2.31293 0
M  V30 3346 H 334.017 -3.03182 -0.177315 0
M  V30 3347 H 331.602 -1.49384 -0.0215402 0
M  V30 3348 H 333.484 -3.30455 -2.61491 0
M  V30 3349 H 332.159 -2.12071 -2.44556 0
M  V30 3350 H 331.066 -3.67052 -0.722746 0
M  V30 3351 H 332.399 -4.82543 -0.970219 0
M  V30 3352 N 334.051 0.0651679 -1.57465 0
M  V30 3353 C 335.467 0.420105 -1.53972 0
M  V30 3354 C 335.667 1.78782 -0.929474 0
M  V30 3355 O 334.723 2.46771 -0.534839 0
M  V30 3356 C 336.036 0.355084 -2.98596 0
M  V30 3357 C 337.584 0.434792 -3.09965 0
M  V30 3358 C 338.059 0.399609 -4.56253 0
M  V30 3359 N 339.55 0.459488 -4.60915 0
M  V30 3360 C 340.285 0.454584 -5.71595 0
M  V30 3361 N 339.781 0.404102 -6.9162 0
M  V30 3362 N 341.574 0.501635 -5.59857 0
M  V30 3363 H 333.725 -0.830328 -1.95498 0
M  V30 3364 H 335.988 -0.312244 -0.895102 0
M  V30 3365 H 335.694 -0.583357 -3.46828 0
M  V30 3366 H 335.568 1.16275 -3.58831 0
M  V30 3367 H 337.955 1.36366 -2.61703 0
M  V30 3368 H 338.036 -0.40157 -2.52628 0
M  V30 3369 H 337.68 -0.525436 -5.05175 0
M  V30 3370 H 337.61 1.25359 -5.11461 0
M  V30 3371 H 340.101 0.502482 -3.74544 0
M  V30 3372 H 340.414 0.404468 -7.71741 0
M  V30 3373 H 338.759 0.37069 -6.94011 0
M  V30 3374 H 341.95 0.538812 -4.64989 0
M  V30 3375 H 342.123 0.494345 -6.46112 0
M  V30 3376 N 335.529 1.53961 0.336706 0
M  V30 3377 C 336.769 1.73254 1.08454 0
M  V30 3378 C 337.133 0.488937 1.8567 0
M  V30 3379 O 338.334 0.559001 2.62923 0
M  V30 3380 C 336.605 2.96519 1.99528 0
M  V30 3381 S 338.164 3.36655 2.81441 0
M  V30 3382 H 334.982 0.609353 0.366347 0
M  V30 3383 H 337.584 1.92117 0.362124 0
M  V30 3384 H 336.288 3.85193 1.41614 0
M  V30 3385 H 335.819 2.80142 2.76196 0
M  V30 3386 H 337.834 2.90925 4.01967 0
M  V30 3387 N 337.007 -0.598083 1.45811 0
M  V30 3388 C 338.253 -1.35882 1.50545 0
M  V30 3389 C 338.586 -1.93616 0.150445 0
M  V30 3390 O 337.861 -1.75604 -0.83628 0
M  V30 3391 C 338.144 -2.49966 2.59208 0
M  V30 3392 C 337.997 -1.97367 4.04186 0
M  V30 3393 C 339.316 -3.52068 2.64076 0
M  V30 3394 H 336.435 -0.492717 0.548087 0
M  V30 3395 H 339.077 -0.673319 1.77669 0
M  V30 3396 H 337.227 -3.08443 2.3621 0
M  V30 3397 H 338.899 -1.43466 4.38423 0
M  V30 3398 H 337.142 -1.283 4.14393 0
M  V30 3399 H 337.813 -2.79649 4.75921 0
M  V30 3400 H 340.289 -3.03448 2.84708 0
M  V30 3401 H 339.165 -4.2937 3.41954 0
M  V30 3402 H 339.426 -4.08304 1.69531 0
M  V30 3403 N 338.485 -1.33259 -0.841409 0
M  V30 3404 C 339.71 -1.2775 -1.63385 0
M  V30 3405 C 340.135 0.149188 -1.87507 0
M  V30 3406 O 339.493 1.10498 -1.43736 0
M  V30 3407 C 339.541 -2.05571 -2.96265 0
M  V30 3408 O 338.645 -1.41257 -3.87453 0
M  V30 3409 H 337.986 -0.439627 -0.497618 0
M  V30 3410 H 340.516 -1.75782 -1.04699 0
M  V30 3411 H 340.526 -2.16241 -3.45982 0
M  V30 3412 H 339.201 -3.09309 -2.7803 0
M  V30 3413 H 337.778 -1.39217 -3.45938 0
M  V30 3414 N 339.963 1.05934 -1.16686 0
M  V30 3415 C 341.21 1.788 -0.950622 0
M  V30 3416 C 341.538 1.87384 0.521305 0
M  V30 3417 O 340.793 1.36438 1.40297 0
M  V30 3418 C 341.092 3.23105 -1.52767 0
M  V30 3419 C 340.758 3.34594 -3.02254 0
M  V30 3420 C 339.42 3.37437 -3.43059 0
M  V30 3421 C 341.772 3.36219 -3.98254 0
M  V30 3422 C 339.1 3.39525 -4.78477 0
M  V30 3423 C 341.452 3.39845 -5.33562 0
M  V30 3424 C 340.116 3.40971 -5.73842 0
M  V30 3425 H 339.386 0.654275 -0.347857 0
M  V30 3426 H 342.033 1.24555 -1.45459 0
M  V30 3427 H 340.338 3.80227 -0.94524 0
M  V30 3428 H 342.035 3.7809 -1.336 0
M  V30 3429 H 338.625 3.3309 -2.6972 0
M  V30 3430 H 342.809 3.33231 -3.67792 0
M  V30 3431 H 338.065 3.38703 -5.09009 0
M  V30 3432 H 342.239 3.4005 -6.07733 0
M  V30 3433 H 339.866 3.42342 -6.78753 0
M  V30 3434 N 341.441 0.965919 1.2453 0
M  V30 3435 C 342.689 0.625593 1.92174 0
M  V30 3436 C 343.01 -0.841652 1.75901 0
M  V30 3437 O 342.28 -1.60061 1.12948 0
M  V30 3438 H 340.86 0.228388 0.71123 0
M  V30 3439 H 343.522 1.2266 1.51461 0
M  V30 3440 H 342.618 0.864653 2.99884 0
M  V30 3441 N 342.919 -1.39368 0.735821 0
M  V30 3442 C 344.165 -2.00794 0.284544 0
M  V30 3443 C 344.498 -1.58255 -1.12557 0
M  V30 3444 O 343.773 -0.811819 -1.76748 0
M  V30 3445 C 344.056 -3.58011 0.387337 0
M  V30 3446 C 343.909 -4.10566 1.83728 0
M  V30 3447 C 345.228 -4.395 -0.22975 0
M  V30 3448 H 342.347 -0.729501 0.104866 0
M  V30 3449 H 344.989 -1.65564 0.93213 0
M  V30 3450 H 343.139 -3.88154 -0.164006 0
M  V30 3451 H 344.811 -3.91139 2.44556 0
M  V30 3452 H 343.054 -3.64095 2.35833 0
M  V30 3453 H 343.725 -5.19702 1.86047 0
M  V30 3454 H 346.201 -4.15406 0.240257 0
M  V30 3455 H 345.077 -5.48752 -0.127485 0
M  V30 3456 H 345.338 -4.22062 -1.3159 0
M  V30 3457 N 344.397 -0.483516 -1.5 0
M  V30 3458 C 345.345 0.318061 -2.30415 0
M  V30 3459 C 346.339 0.978988 -1.38247 0
M  V30 3460 O 347.545 0.908673 -1.55381 0
M  V30 3461 H 343.92 0.121419 -0.742133 0
M  V30 3462 H 345.891 -0.380403 -2.95965 0
M  V30 3463 C 344.64 1.38013 -3.19136 0
M  V30 3464 H 343.963 0.880952 -3.89973 0
M  V30 3465 H 345.403 1.91332 -3.78375 0
M  V30 3466 C 343.862 2.38884 -2.37563 0
M  V30 3467 O 344.392 3.44412 -2.06744 0
M  V30 3468 N 342.598 2.10912 -1.99911 0
M  V30 3469 H 342.145 1.25118 -2.25174 0
M  V30 3470 H 342.103 2.78635 -1.45636 0
M  V30 3471 N 345.875 1.56104 -0.216619 0
M  V30 3472 C 346.808 2.16026 0.735395 0
M  V30 3473 C 347.786 1.1032 1.1945 0
M  V30 3474 O 348.97 1.38549 1.27814 0
M  V30 3475 C 346.097 2.73656 1.99575 0
M  V30 3476 C 345.143 3.92146 1.67702 0
M  V30 3477 S 345.976 5.29397 0.806145 0
M  V30 3478 C 347.132 5.90463 2.07617 0
M  V30 3479 H 347.365 2.96439 0.226072 0
M  V30 3480 H 344.898 1.544 -0.00136639 0
M  V30 3481 H 346.856 3.075 2.71945 0
M  V30 3482 H 345.517 1.93245 2.47619 0
M  V30 3483 H 344.71 4.30954 2.61332 0
M  V30 3484 H 344.312 3.59423 1.03398 0
M  V30 3485 H 346.604 6.06136 3.02664 0
M  V30 3486 H 347.547 6.86589 1.73207 0
M  V30 3487 H 347.955 5.19252 2.21445 0
M  V30 3488 N 347.353 -0.0568162 1.57498 0
M  V30 3489 C 348.601 -0.751617 1.87604 0
M  V30 3490 C 348.922 -1.77351 0.81066 0
M  V30 3491 O 348.192 -1.95254 -0.159018 0
M  V30 3492 H 346.772 -0.280583 0.692302 0
M  V30 3493 H 349.434 -0.0293483 1.94878 0
M  V30 3494 H 348.53 -1.25852 2.856 0
M  V30 3495 N 348.832 -1.54138 -0.328536 0
M  V30 3496 C 350.109 -1.62749 -1.08499 0
M  V30 3497 C 350.489 -0.458198 -2.06067 0
M  V30 3498 O 349.837 0.548046 -2.2183 0
M  V30 3499 C 350.047 -2.99519 -1.79135 0
M  V30 3500 C 351.395 -3.55394 -2.32337 0
M  V30 3501 O 352.419 -3.01792 -1.89209 0
M  V30 3502 O 351.278 -4.49186 -3.11279 0
M  V30 3503 H 348.372 -0.65886 -0.499832 0
M  V30 3504 H 350.918 -1.66484 -0.328826 0
M  V30 3505 H 349.69 -3.76061 -1.08139 0
M  V30 3506 H 349.313 -2.99441 -2.61574 0
M  V30 3507 N 350.31 0.590341 -1.46126 0
M  V30 3508 C 351.54 1.37304 -1.54373 0
M  V30 3509 C 351.948 1.88332 -0.181071 0
M  V30 3510 O 351.291 1.63852 0.830559 0
M  V30 3511 C 351.353 2.6012 -2.48149 0
M  V30 3512 C 351.017 2.30613 -3.94546 0
M  V30 3513 C 352.014 1.89915 -4.83971 0
M  V30 3514 C 349.699 2.42993 -4.39613 0
M  V30 3515 C 351.693 1.61981 -6.16475 0
M  V30 3516 C 349.38 2.14672 -5.72153 0
M  V30 3517 C 350.378 1.7423 -6.60404 0
M  V30 3518 O 350.066 1.46251 -7.90485 0
M  V30 3519 H 349.798 0.426086 -0.524811 0
M  V30 3520 H 352.352 0.72539 -1.92165 0
M  V30 3521 H 350.582 3.27664 -2.05361 0
M  V30 3522 H 352.271 3.22182 -2.46887 0
M  V30 3523 H 353.037 1.79872 -4.50412 0
M  V30 3524 H 348.916 2.73435 -3.71153 0
M  V30 3525 H 352.46 1.30341 -6.85315 0
M  V30 3526 H 348.357 2.24337 -6.05263 0
M  V30 3527 H 349.125 1.6016 -8.02677 0
M  V30 3528 N 351.788 1.33704 0.83433 0
M  V30 3529 C 352.738 1.20899 1.93306 0
M  V30 3530 C 353.722 0.110783 1.60518 0
M  V30 3531 O 354.914 0.339331 1.73717 0
M  V30 3532 C 352.043 0.955018 3.29749 0
M  V30 3533 C 351.129 2.09587 3.68692 0
M  V30 3534 N 351.52 3.34621 3.79292 0
M  V30 3535 C 349.818 2.00358 3.98463 0
M  V30 3536 C 350.519 4.09472 4.13167 0
M  V30 3537 N 349.495 3.37954 4.25779 0
M  V30 3538 H 353.297 2.15665 1.99664 0
M  V30 3539 H 350.811 1.25777 1.02732 0
M  V30 3540 H 352.808 0.844208 4.08263 0
M  V30 3541 H 351.468 0.0159317 3.24696 0
M  V30 3542 H 352.479 3.69313 3.63082 0
M  V30 3543 H 349.156 1.14137 4.01596 0
M  V30 3544 H 350.546 5.17391 4.28668 0
M  V30 3545 N 353.266 -1.05314 1.17247 0
M  V30 3546 C 354.196 -2.1498 0.911362 0
M  V30 3547 C 355.177 -1.69471 -0.146169 0
M  V30 3548 O 356.362 -1.942 0.003812 0
M  V30 3549 C 353.492 -3.4472 0.422528 0
M  V30 3550 C 352.446 -4.03789 1.4191 0
M  V30 3551 C 351.772 -5.28858 0.788274 0
M  V30 3552 C 353.072 -4.41418 2.7919 0
M  V30 3553 H 354.766 -2.3708 1.82848 0
M  V30 3554 H 352.312 -1.13938 0.880569 0
M  V30 3555 H 354.265 -4.20787 0.227289 0
M  V30 3556 H 352.989 -3.22269 -0.530123 0
M  V30 3557 H 351.648 -3.2979 1.60106 0
M  V30 3558 H 351.296 -5.02709 -0.171173 0
M  V30 3559 H 350.996 -5.69338 1.45353 0
M  V30 3560 H 352.52 -6.07612 0.603282 0
M  V30 3561 H 353.934 -5.08524 2.64719 0
M  V30 3562 H 352.331 -4.92913 3.42282 0
M  V30 3563 H 353.401 -3.51819 3.33693 0
M  V30 3564 N 354.744 -0.972509 -1.24016 0
M  V30 3565 C 355.692 -0.498562 -2.27194 0
M  V30 3566 C 356.686 0.440372 -1.63576 0
M  V30 3567 O 357.892 0.315133 -1.7722 0
M  V30 3568 H 354.267 -0.142775 -0.738322 0
M  V30 3569 H 356.238 -1.38065 -2.64539 0
M  V30 3570 C 354.987 0.191072 -3.47175 0
M  V30 3571 H 354.31 -0.522318 -3.96373 0
M  V30 3572 H 355.75 0.486445 -4.212 0
M  V30 3573 C 354.209 1.41967 -3.05527 0
M  V30 3574 O 354.739 2.51642 -3.13112 0
M  V30 3575 N 352.945 1.28746 -2.60524 0
M  V30 3576 H 352.492 0.395089 -2.54552 0
M  V30 3577 H 352.45 2.11061 -2.33025 0
M  V30 3578 N 356.222 1.38976 -0.743202 0
M  V30 3579 C 357.172 2.27843 -0.084513 0
M  V30 3580 C 358.156 1.44677 0.704094 0
M  V30 3581 O 359.348 1.67511 0.571755 0
M  V30 3582 C 356.477 3.33466 0.815781 0
M  V30 3583 C 355.563 4.24095 0.0208844 0
M  V30 3584 N 355.954 4.95609 -1.0102 0
M  V30 3585 C 354.252 4.45303 0.249293 0
M  V30 3586 C 354.953 5.62287 -1.49024 0
M  V30 3587 N 353.929 5.37571 -0.807377 0
M  V30 3588 H 357.731 2.80593 -0.87436 0
M  V30 3589 H 355.245 1.51755 -0.578283 0
M  V30 3590 H 357.242 3.96008 1.30321 0
M  V30 3591 H 355.902 2.82276 1.6047 0
M  V30 3592 H 356.913 4.98849 -1.39176 0
M  V30 3593 H 353.59 4.0504 1.01237 0
M  V30 3594 H 354.98 6.29519 -2.34853 0
M  V30 3595 N 357.7 0.491464 1.49741 0
M  V30 3596 C 358.632 -0.328609 2.26832 0
M  V30 3597 C 359.645 -0.939113 1.32983 0
M  V30 3598 O 360.834 -0.824067 1.58339 0
M  V30 3599 C 357.934 -1.47675 3.05033 0
M  V30 3600 C 357.107 -0.975305 4.26388 0
M  V30 3601 C 356.166 -1.99991 4.86714 0
M  V30 3602 O 355.192 -1.57229 5.47054 0
M  V30 3603 N 356.394 -3.32962 4.75517 0
M  V30 3604 H 359.159 0.332377 2.97851 0
M  V30 3605 H 356.72 0.323441 1.58636 0
M  V30 3606 H 358.712 -2.15954 3.42266 0
M  V30 3607 H 357.282 -2.04206 2.36683 0
M  V30 3608 H 356.502 -0.117723 3.94024 0
M  V30 3609 H 357.79 -0.618531 5.05026 0
M  V30 3610 H 357.188 -3.70399 4.27576 0
M  V30 3611 H 355.745 -3.96982 5.16961 0
M  V30 3612 N 359.178 -1.55987 0.224894 0
M  V30 3613 C 360.11 -2.17722 -0.716224 0
M  V30 3614 C 361.123 -1.14723 -1.15509 0
M  V30 3615 O 362.312 -1.41688 -1.08567 0
M  V30 3616 C 359.412 -2.74873 -1.98238 0
M  V30 3617 C 358.585 -4.03074 -1.69853 0
M  V30 3618 C 357.644 -4.44757 -2.81208 0
M  V30 3619 O 356.67 -5.11587 -2.49534 0
M  V30 3620 N 357.872 -4.10716 -4.10235 0
M  V30 3621 H 360.637 -2.99109 -0.188123 0
M  V30 3622 H 358.198 -1.6184 0.0440123 0
M  V30 3623 H 360.19 -2.99727 -2.7193 0
M  V30 3624 H 358.76 -1.9777 -2.42086 0
M  V30 3625 H 357.98 -3.86041 -0.797875 0
M  V30 3626 H 359.268 -4.86701 -1.48324 0
M  V30 3627 H 358.666 -3.57019 -4.38809 0
M  V30 3628 H 357.223 -4.40455 -4.80461 0
M  V30 3629 N 360.656 0.0484629 -1.57525 0
M  V30 3630 C 361.904 0.741657 -1.88 0
M  V30 3631 C 362.225 1.76918 -0.820054 0
M  V30 3632 O 361.495 1.95335 0.148661 0
M  V30 3633 H 360.075 0.276908 -0.69378 0
M  V30 3634 H 362.737 0.019013 -1.94891 0
M  V30 3635 H 361.833 1.24336 -2.86264 0
M  V30 3636 N 362.134 1.5431 0.320358 0
M  V30 3637 C 363.044 1.86946 1.41734 0
M  V30 3638 C 364.06 0.761689 1.56443 0
M  V30 3639 O 365.236 1.05629 1.71477 0
M  V30 3640 C 362.301 2.09293 2.76401 0
M  V30 3641 C 361.362 3.33082 2.70841 0
M  V30 3642 C 360.595 3.54353 3.99086 0
M  V30 3643 O 360.818 2.79002 4.97508 0
M  V30 3644 O 359.752 4.47838 4.0215 0
M  V30 3645 H 363.578 2.80232 1.17062 0
M  V30 3646 H 361.163 1.40255 0.514673 0
M  V30 3647 H 363.045 2.25303 3.56113 0
M  V30 3648 H 361.72 1.19194 3.00956 0
M  V30 3649 H 360.627 3.22454 1.89668 0
M  V30 3650 H 361.96 4.23249 2.5124 0
M  V30 3651 N 363.613 -0.582584 1.46437 0
M  V30 3652 C 364.841 -1.36682 1.55324 0
M  V30 3653 C 365.256 -1.87796 0.194409 0
M  V30 3654 O 364.613 -1.63623 -0.808318 0
M  V30 3655 C 364.664 -2.55426 2.55812 0
M  V30 3656 O 364.385 -2.0643 3.86417 0
M  V30 3657 C 365.886 -3.47976 2.74641 0
M  V30 3658 H 363.106 -0.417545 0.525259 0
M  V30 3659 H 365.65 -0.708219 1.91845 0
M  V30 3660 H 363.805 -3.17275 2.22295 0
M  V30 3661 H 364.219 -2.83762 4.41111 0
M  V30 3662 H 365.693 -4.27775 3.48874 0
M  V30 3663 H 366.17 -3.99919 1.81553 0
M  V30 3664 H 366.776 -2.91962 3.09255 0
M  V30 3665 N 365.091 -1.34144 -0.827227 0
M  V30 3666 C 366.337 -1.27455 -1.58515 0
M  V30 3667 C 366.692 0.155271 -1.91772 0
M  V30 3668 O 365.985 1.10042 -1.56848 0
M  V30 3669 C 366.179 -2.09464 -2.89585 0
M  V30 3670 C 366.008 -3.60276 -2.69131 0
M  V30 3671 C 364.778 -4.29565 -2.66087 0
M  V30 3672 C 366.976 -4.54367 -2.40947 0
M  V30 3673 N 364.958 -5.66252 -2.37132 0
M  V30 3674 C 366.329 -5.79027 -2.21648 0
M  V30 3675 C 368.384 -4.43327 -2.26639 0
M  V30 3676 C 367.087 -6.93891 -1.89492 0
M  V30 3677 C 369.113 -5.58019 -1.95878 0
M  V30 3678 C 368.475 -6.81695 -1.774 0
M  V30 3679 H 364.574 -0.521614 -0.582617 0
M  V30 3680 H 367.158 -1.68811 -0.970105 0
M  V30 3681 H 365.329 -1.70411 -3.49019 0
M  V30 3682 H 367.061 -1.94453 -3.54923 0
M  V30 3683 H 363.816 -3.81959 -2.80008 0
M  V30 3684 H 364.24 -6.38338 -2.25507 0
M  V30 3685 H 368.882 -3.48333 -2.39633 0
M  V30 3686 H 366.6 -7.88871 -1.75236 0
M  V30 3687 H 370.186 -5.5142 -1.85546 0
M  V30 3688 H 369.066 -7.68942 -1.53941 0
M  V30 3689 N 366.569 1.04691 -1.17803 0
M  V30 3690 C 367.499 2.14494 -0.92275 0
M  V30 3691 C 368.48 1.69546 0.137179 0
M  V30 3692 O 369.665 1.94195 -0.0141108 0
M  V30 3693 C 366.795 3.44491 -0.440803 0
M  V30 3694 C 365.749 4.03031 -1.4405 0
M  V30 3695 C 365.075 5.28432 -0.81631 0
M  V30 3696 C 366.375 4.39932 -2.81527 0
M  V30 3697 H 368.069 2.36107 -1.84103 0
M  V30 3698 H 365.615 1.1347 -0.886599 0
M  V30 3699 H 367.568 4.2066 -0.249602 0
M  V30 3700 H 366.292 3.22546 0.513025 0
M  V30 3701 H 364.951 3.28937 -1.61853 0
M  V30 3702 H 364.599 5.02792 0.144511 0
M  V30 3703 H 364.299 5.68559 -1.48371 0
M  V30 3704 H 365.823 6.07284 -0.635496 0
M  V30 3705 H 367.237 5.07113 -2.67412 0
M  V30 3706 H 365.634 4.9109 -3.44892 0
M  V30 3707 H 366.704 3.50045 -3.35554 0
M  V30 3708 N 368.047 0.979072 1.23499 0
M  V30 3709 C 369.463 0.687475 1.44034 0
M  V30 3710 C 369.663 -0.746801 1.8715 0
M  V30 3711 O 368.719 -1.51939 2.0167 0
M  V30 3712 C 370.032 1.68127 2.49307 0
M  V30 3713 C 371.58 1.69516 2.63122 0
M  V30 3714 C 372.055 2.67723 3.71603 0
M  V30 3715 N 373.546 2.66233 3.79044 0
M  V30 3716 C 374.281 3.38891 4.62537 0
M  V30 3717 N 373.777 4.21103 5.50131 0
M  V30 3718 N 375.57 3.27661 4.56721 0
M  V30 3719 H 367.721 1.90559 0.938135 0
M  V30 3720 H 369.984 0.821051 0.473897 0
M  V30 3721 H 369.69 2.70693 2.2454 0
M  V30 3722 H 369.564 1.46306 3.4767 0
M  V30 3723 H 371.951 0.676561 2.8724 0
M  V30 3724 H 372.032 1.95404 1.65079 0
M  V30 3725 H 371.676 3.69724 3.48233 0
M  V30 3726 H 371.606 2.39111 4.69184 0
M  V30 3727 H 374.097 2.06568 3.16446 0
M  V30 3728 H 374.41 4.73403 6.10827 0
M  V30 3729 H 372.755 4.25195 5.49759 0
M  V30 3730 H 375.946 2.62887 3.87309 0
M  V30 3731 H 376.119 3.84547 5.21562 0
M  V30 3732 N 369.525 -1.3858 0.750561 0
M  V30 3733 C 370.771 -2.00481 0.305825 0
M  V30 3734 C 371.104 -1.5944 -1.10872 0
M  V30 3735 O 370.379 -0.83052 -1.75877 0
M  V30 3736 C 370.662 -3.5758 0.425287 0
M  V30 3737 C 370.515 -4.08594 1.88072 0
M  V30 3738 C 371.834 -4.39719 -0.183122 0
M  V30 3739 H 368.953 -0.728348 0.112598 0
M  V30 3740 H 371.595 -1.64566 0.949638 0
M  V30 3741 H 369.745 -3.88306 -0.122828 0
M  V30 3742 H 371.417 -3.88523 2.48691 0
M  V30 3743 H 369.66 -3.61574 2.39681 0
M  V30 3744 H 370.331 -5.177 1.91548 0
M  V30 3745 H 372.807 -4.15128 0.284303 0
M  V30 3746 H 371.683 -5.48856 -0.0692757 0
M  V30 3747 H 371.944 -4.23434 -1.27106 0
M  V30 3748 N 371.003 -0.499398 -1.49478 0
M  V30 3749 C 371.95 0.279881 -2.29097 0
M  V30 3750 C 372.92 0.961805 -1.3542 0
M  V30 3751 O 374.105 0.968777 -1.64376 0
M  V30 3752 C 371.245 1.33932 -3.18051 0
M  V30 3753 C 370.358 0.669333 -4.26783 0
M  V30 3754 C 369.493 1.70907 -5.02955 0
M  V30 3755 C 368.532 1.02087 -6.03527 0
M  V30 3756 N 367.669 2.00474 -6.7287 0
M  V30 3757 H 372.509 -0.405317 -2.95231 0
M  V30 3758 H 370.046 -0.211726 -1.45568 0
M  V30 3759 H 372.004 1.96553 -3.67998 0
M  V30 3760 H 370.634 1.9933 -2.53904 0
M  V30 3761 H 369.686 -0.0701234 -3.80335 0
M  V30 3762 H 370.998 0.127503 -4.98637 0
M  V30 3763 H 370.152 2.41037 -5.56764 0
M  V30 3764 H 368.891 2.28476 -4.30871 0
M  V30 3765 H 367.896 0.305338 -5.48951 0
M  V30 3766 H 369.121 0.451708 -6.77596 0
M  V30 3767 H 367.067 2.57007 -6.03559 0
M  V30 3768 H 366.984 1.51353 -7.40694 0
M  V30 3769 H 368.252 2.69897 -7.31284 0
M  V30 3770 N 372.481 1.55866 -0.233164 0
M  V30 3771 C 373.729 1.9821 0.394593 0
M  V30 3772 C 374.05 1.12234 1.59463 0
M  V30 3773 O 373.32 0.201981 1.94856 0
M  V30 3774 H 371.9 0.732034 0.148778 0
M  V30 3775 H 374.562 1.92107 -0.32876 0
M  V30 3776 H 373.658 3.03845 0.713063 0
M  V30 3777 N 373.959 -0.0401083 1.57549 0
M  V30 3778 C 374.869 -1.06133 2.0922 0
M  V30 3779 C 375.885 -1.40356 1.0284 0
M  V30 3780 O 377.061 -1.49897 1.34509 0
M  V30 3781 C 374.126 -2.34658 2.55218 0
M  V30 3782 C 373.187 -2.07117 3.76033 0
M  V30 3783 C 372.42 -3.29514 4.19829 0
M  V30 3784 O 372.643 -4.39794 3.63232 0
M  V30 3785 O 371.577 -3.15863 5.12362 0
M  V30 3786 H 375.403 -0.652244 2.96613 0
M  V30 3787 H 372.988 -0.256368 1.47184 0
M  V30 3788 H 374.87 -3.10239 2.85184 0
M  V30 3789 H 373.545 -2.74883 1.70941 0
M  V30 3790 H 372.452 -1.29139 3.51104 0
M  V30 3791 H 373.785 -1.71754 4.61261 0
M  V30 3792 N 375.437 -1.54477 -0.31217 0
M  V30 3793 C 376.384 -1.84655 -1.38461 0
M  V30 3794 C 377.354 -0.694536 -1.50882 0
M  V30 3795 O 378.539 -0.942081 -1.6592 0
M  V30 3796 C 375.679 -2.0896 -2.74645 0
M  V30 3797 C 374.792 -3.36618 -2.70763 0
M  V30 3798 C 373.927 -3.50824 -3.98868 0
M  V30 3799 C 372.966 -4.72315 -3.89339 0
M  V30 3800 N 372.103 -4.83387 -5.09197 0
M  V30 3801 H 376.943 -2.76142 -1.12026 0
M  V30 3802 H 374.48 -1.36748 -0.542065 0
M  V30 3803 H 376.438 -2.21045 -3.53829 0
M  V30 3804 H 375.068 -1.20752 -2.99364 0
M  V30 3805 H 374.12 -3.33211 -1.83506 0
M  V30 3806 H 375.432 -4.25917 -2.59608 0
M  V30 3807 H 374.586 -3.62513 -4.86486 0
M  V30 3808 H 373.325 -2.59638 -4.12843 0
M  V30 3809 H 372.33 -4.6067 -3.00105 0
M  V30 3810 H 373.555 -5.64897 -3.76919 0
M  V30 3811 H 371.501 -3.9512 -5.23657 0
M  V30 3812 H 371.418 -5.66669 -5.00422 0
M  V30 3813 H 372.686 -4.9942 -5.98498 0
M  V30 3814 N 376.915 0.57481 -1.46744 0
M  V30 3815 C 378.161 1.3347 -1.52688 0
M  V30 3816 C 378.494 1.93353 -0.181229 0
M  V30 3817 O 377.769 1.76912 0.808237 0
M  V30 3818 C 378.052 2.45811 -2.63152 0
M  V30 3819 C 377.905 1.90912 -4.07275 0
M  V30 3820 C 379.224 3.47822 -2.69644 0
M  V30 3821 H 376.343 0.483935 -0.555856 0
M  V30 3822 H 378.985 0.644968 -1.78718 0
M  V30 3823 H 377.135 3.04646 -2.41088 0
M  V30 3824 H 378.807 1.36473 -4.4065 0
M  V30 3825 H 377.05 1.21691 -4.16382 0
M  V30 3826 H 377.721 2.72042 -4.80309 0
M  V30 3827 H 380.197 2.9888 -2.895 0
M  V30 3828 H 379.073 4.23876 -3.48742 0
M  V30 3829 H 379.334 4.05555 -1.76005 0
M  V30 3830 N 378.394 1.34581 0.820102 0
M  V30 3831 C 379.324 1.29038 1.94606 0
M  V30 3832 C 380.305 0.1673 1.69275 0
M  V30 3833 O 381.49 0.360112 1.90832 0
M  V30 3834 C 378.62 1.04793 3.31113 0
M  V30 3835 C 377.574 2.13597 3.70891 0
M  V30 3836 C 376.9 1.74537 5.05412 0
M  V30 3837 C 378.2 3.55451 3.8269 0
M  V30 3838 H 379.894 2.23248 1.99501 0
M  V30 3839 H 377.44 1.0747 0.958449 0
M  V30 3840 H 379.393 0.995592 4.0947 0
M  V30 3841 H 378.117 0.0702565 3.26524 0
M  V30 3842 H 376.776 2.17905 2.9481 0
M  V30 3843 H 376.424 0.754226 4.97313 0
M  V30 3844 H 376.124 2.47361 5.32997 0
M  V30 3845 H 377.648 1.70803 5.86224 0
M  V30 3846 H 379.062 3.5354 4.51312 0
M  V30 3847 H 377.459 4.26922 4.21732 0
M  V30 3848 H 378.529 3.92587 2.84611 0
M  V30 3849 N 379.872 -1.04064 1.18357 0
M  V30 3850 C 380.82 -2.14187 0.907007 0
M  V30 3851 C 381.814 -1.68879 -0.132725 0
M  V30 3852 O 383.02 -1.79993 0.0154248 0
M  V30 3853 H 379.395 -0.699585 0.275835 0
M  V30 3854 H 381.366 -2.34711 1.84264 0
M  V30 3855 C 380.115 -3.44785 0.449254 0
M  V30 3856 H 379.438 -3.80058 1.24081 0
M  V30 3857 H 380.878 -4.22974 0.294737 0
M  V30 3858 C 379.337 -3.26391 -0.834909 0
M  V30 3859 O 379.867 -3.53973 -1.89911 0
M  V30 3860 N 378.073 -2.79726 -0.787523 0
M  V30 3861 H 377.62 -2.5748 0.0787347 0
M  V30 3862 H 377.578 -2.67798 -1.64716 0
M  V30 3863 N 381.35 -0.985608 -1.22978 0
M  V30 3864 C 382.596 -0.65836 -1.91816 0
M  V30 3865 C 382.929 0.806692 -1.76653 0
M  V30 3866 O 382.204 1.58252 -1.13078 0
M  V30 3867 C 382.487 -1.056 -3.44268 0
M  V30 3868 C 382.34 -2.57906 -3.68516 0
M  V30 3869 C 383.659 -0.603781 -4.35939 0
M  V30 3870 H 380.778 -0.24065 -0.696604 0
M  V30 3871 H 383.42 -1.22783 -1.44998 0
M  V30 3872 H 381.57 -0.571445 -3.84274 0
M  V30 3873 H 383.242 -3.13976 -3.3796 0
M  V30 3874 H 381.485 -3.00305 -3.13048 0
M  V30 3875 H 382.156 -2.80779 -4.75255 0
M  V30 3876 H 384.632 -1.01987 -4.03408 0
M  V30 3877 H 383.508 -0.910383 -5.41298 0
M  V30 3878 H 383.769 0.495761 -4.39312 0
M  V30 3879 N 382.828 1.3818 -0.7579 0
M  V30 3880 C 383.775 2.30416 -0.133057 0
M  V30 3881 C 384.745 1.50398 0.704957 0
M  V30 3882 O 385.93 1.79014 0.660192 0
M  V30 3883 C 383.07 3.36834 0.750813 0
M  V30 3884 C 382.183 4.31879 -0.102297 0
M  V30 3885 C 381.318 5.25368 0.784979 0
M  V30 3886 C 380.357 6.12058 -0.0715046 0
M  V30 3887 N 379.494 6.97832 0.772972 0
M  V30 3888 H 384.334 2.83274 -0.925186 0
M  V30 3889 H 381.871 1.39461 -0.467866 0
M  V30 3890 H 383.829 3.97145 1.27794 0
M  V30 3891 H 382.459 2.85374 1.50868 0
M  V30 3892 H 381.511 3.72991 -0.747095 0
M  V30 3893 H 382.823 4.92921 -0.763552 0
M  V30 3894 H 381.977 5.90818 1.37911 0
M  V30 3895 H 380.716 4.64703 1.47996 0
M  V30 3896 H 379.721 5.456 -0.678272 0
M  V30 3897 H 380.946 6.74793 -0.763606 0
M  V30 3898 H 378.892 6.3971 1.45282 0
M  V30 3899 H 378.809 7.55812 0.168709 0
M  V30 3900 H 380.077 7.67687 1.35194 0
M  V30 3901 N 384.306 0.507319 1.49211 0
M  V30 3902 C 385.216 -0.272136 2.33016 0
M  V30 3903 C 386.232 -0.961206 1.45041 0
M  V30 3904 O 387.408 -0.941191 1.78055 0
M  V30 3905 C 384.473 -1.31895 3.20631 0
M  V30 3906 C 383.534 -0.642648 4.24463 0
M  V30 3907 C 382.767 -1.63959 5.07891 0
M  V30 3908 O 382.99 -2.87007 4.92933 0
M  V30 3909 O 381.924 -1.19143 5.8999 0
M  V30 3910 H 385.75 0.413982 3.00865 0
M  V30 3911 H 383.335 0.268556 1.46966 0
M  V30 3912 H 385.217 -1.92446 3.7489 0
M  V30 3913 H 383.892 -1.98788 2.5547 0
M  V30 3914 H 382.799 0.00276252 3.741 0
M  V30 3915 H 384.132 -0.0160534 4.92197 0
M  V30 3916 N 385.784 -1.5574 0.241426 0
M  V30 3917 C 386.717 -2.17168 -0.700935 0
M  V30 3918 C 387.695 -1.12206 -1.1768 0
M  V30 3919 O 388.879 -1.40565 -1.25593 0
M  V30 3920 C 386.006 -2.76796 -1.95196 0
M  V30 3921 C 385.052 -3.94764 -1.61442 0
M  V30 3922 S 385.885 -5.30613 -0.72182 0
M  V30 3923 C 387.041 -5.93691 -1.98197 0
M  V30 3924 H 387.274 -2.96761 -0.178882 0
M  V30 3925 H 384.807 -1.54378 0.0259299 0
M  V30 3926 H 386.765 -3.11787 -2.67019 0
M  V30 3927 H 385.426 -1.9716 -2.44514 0
M  V30 3928 H 384.619 -4.35057 -2.54443 0
M  V30 3929 H 384.221 -3.61022 -0.976672 0
M  V30 3930 H 386.513 -6.10874 -2.92983 0
M  V30 3931 H 387.456 -6.89258 -1.62262 0
M  V30 3932 H 387.864 -5.22709 -2.13156 0
M  V30 3933 N 387.262 0.0317525 -1.57568 0
M  V30 3934 C 388.209 1.0332 -2.06382 0
M  V30 3935 C 389.179 1.36082 -0.952414 0
M  V30 3936 O 390.364 1.46466 -1.2228 0
M  V30 3937 C 387.504 2.32989 -2.54578 0
M  V30 3938 C 386.617 2.0641 -3.79498 0
M  V30 3939 C 385.752 3.2993 -4.16317 0
M  V30 3940 C 384.791 2.98893 -5.34162 0
M  V30 3941 N 383.928 4.14857 -5.66426 0
M  V30 3942 H 388.768 0.609982 -2.9169 0
M  V30 3943 H 386.305 0.289573 -1.44222 0
M  V30 3944 H 388.263 3.0875 -2.80587 0
M  V30 3945 H 386.893 2.73039 -1.7219 0
M  V30 3946 H 385.945 1.21158 -3.6059 0
M  V30 3947 H 387.257 1.79513 -4.65378 0
M  V30 3948 H 386.411 4.1406 -4.4344 0
M  V30 3949 H 385.15 3.59938 -3.29083 0
M  V30 3950 H 384.155 2.13164 -5.06795 0
M  V30 3951 H 385.38 2.70165 -6.23047 0
M  V30 3952 H 383.326 4.44821 -4.82151 0
M  V30 3953 H 383.243 3.91374 -6.4681 0
M  V30 3954 H 384.511 4.99868 -5.98124 0
M  V30 3955 N 388.74 1.54641 0.303973 0
M  V30 3956 C 389.67 1.88386 1.3796 0
M  V30 3957 C 390.651 0.742485 1.5304 0
M  V30 3958 O 391.836 0.997959 1.66597 0
M  V30 3959 C 388.966 2.12854 2.74427 0
M  V30 3960 C 387.92 3.28702 2.74115 0
M  V30 3961 C 387.246 3.38582 4.13844 0
M  V30 3962 C 388.546 4.65881 2.3612 0
M  V30 3963 H 390.24 2.78474 1.09966 0
M  V30 3964 H 387.786 1.33988 0.527556 0
M  V30 3965 H 389.739 2.35047 3.49758 0
M  V30 3966 H 388.463 1.19535 3.03939 0
M  V30 3967 H 387.122 3.06428 2.0124 0
M  V30 3968 H 386.77 2.42784 4.40528 0
M  V30 3969 H 386.47 4.16453 4.14537 0
M  V30 3970 H 387.994 3.63031 4.90959 0
M  V30 3971 H 389.408 4.87823 3.01167 0
M  V30 3972 H 387.805 5.46444 2.48031 0
M  V30 3973 H 388.875 4.66799 1.3125 0
M  V30 3974 N 390.218 -0.567019 1.47046 0
M  V30 3975 C 391.443 -1.3551 1.57009 0
M  V30 3976 C 391.868 -1.86841 0.217259 0
M  V30 3977 O 391.226 -1.62435 -0.805268 0
M  V30 3978 C 391.274 -2.50777 2.5912 0
M  V30 3979 O 390.378 -3.52706 2.13711 0
M  V30 3980 H 389.719 -0.402919 0.52778 0
M  V30 3981 H 392.249 -0.686241 1.92748 0
M  V30 3982 H 392.259 -2.97481 2.79229 0
M  V30 3983 H 390.934 -2.12771 3.57353 0
M  V30 3984 H 389.511 -3.12374 2.03659 0
M  V30 3985 N 391.696 -1.35014 -0.812953 0
M  V30 3986 C 392.944 -1.27678 -1.56661 0
M  V30 3987 C 393.265 0.150359 -1.94419 0
M  V30 3988 O 392.535 1.08532 -1.63088 0
M  V30 3989 H 391.115 -0.469602 -0.580933 0
M  V30 3990 H 393.777 -1.69043 -0.970076 0
M  V30 3991 H 392.873 -1.88833 -2.48492 0
M  V30 3992 N 393.175 1.03435 -1.18907 0
M  V30 3993 C 394.107 2.1165 -0.879595 0
M  V30 3994 C 395.12 1.62316 0.125439 0
M  V30 3995 O 396.309 1.78201 -0.103245 0
M  V30 3996 C 393.409 3.37622 -0.294042 0
M  V30 3997 C 392.582 4.16166 -1.34629 0
M  V30 3998 C 391.641 5.20457 -0.775274 0
M  V30 3999 O 390.667 5.50379 -1.4516 0
M  V30 4000 N 391.869 5.78949 0.424126 0
M  V30 4001 H 394.634 2.38791 -1.81105 0
M  V30 4002 H 392.195 1.19681 -1.09032 0
M  V30 4003 H 394.187 4.04572 0.101679 0
M  V30 4004 H 392.757 3.07873 0.541575 0
M  V30 4005 H 391.977 3.44444 -1.91707 0
M  V30 4006 H 393.265 4.65432 -2.05549 0
M  V30 4007 H 392.663 5.56948 0.991209 0
M  V30 4008 H 391.22 6.47334 0.761691 0
M  V30 4009 N 394.653 0.992116 1.22453 0
M  V30 4010 C 395.603 0.512969 2.22155 0
M  V30 4011 C 396.587 -0.418416 1.55364 0
M  V30 4012 O 397.779 -0.245363 1.75291 0
M  V30 4013 C 394.908 -0.171822 3.4287 0
M  V30 4014 C 393.994 0.779822 4.16869 0
M  V30 4015 N 394.385 1.92734 4.6764 0
M  V30 4016 C 392.683 0.59554 4.42006 0
M  V30 4017 C 393.384 2.52458 5.24061 0
M  V30 4018 N 392.36 1.80735 5.12675 0
M  V30 4019 H 396.162 1.38817 2.5905 0
M  V30 4020 H 393.676 0.854277 1.38115 0
M  V30 4021 H 395.673 -0.532469 4.13486 0
M  V30 4022 H 394.333 -1.04317 3.07487 0
M  V30 4023 H 395.344 2.30816 4.63621 0
M  V30 4024 H 392.021 -0.229805 4.16867 0
M  V30 4025 H 393.411 3.49433 5.73887 0
M  V30 4026 N 396.131 -1.37776 0.765217 0
M  V30 4027 C 397.079 -2.32209 0.134798 0
M  V30 4028 C 398.073 -1.54607 -0.692315 0
M  V30 4029 O 399.279 -1.70052 -0.590109 0
M  V30 4030 H 395.654 -0.751591 0.0248005 0
M  V30 4031 H 397.625 -2.8297 0.947119 0
M  V30 4032 C 396.374 -3.39841 -0.735063 0
M  V30 4033 H 395.697 -3.99654 -0.107991 0
M  V30 4034 H 397.137 -4.08296 -1.14326 0
M  V30 4035 C 395.596 -2.79378 -1.88281 0
M  V30 4036 O 396.126 -2.69608 -2.97783 0
M  V30 4037 N 394.332 -2.37016 -1.68142 0
M  V30 4038 H 393.879 -2.45162 -0.790772 0
M  V30 4039 H 393.837 -1.96905 -2.45104 0
M  V30 4040 N 397.609 -0.515225 -1.4894 0
M  V30 4041 C 398.839 0.0205735 -2.0659 0
M  V30 4042 C 399.247 1.30064 -1.37405 0
M  V30 4043 O 398.59 1.78087 -0.450632 0
M  V30 4044 C 398.652 0.330124 -3.57981 0
M  V30 4045 C 398.316 -0.854295 -4.48944 0
M  V30 4046 C 399.313 -1.7487 -4.89609 0
M  V30 4047 C 396.998 -1.05712 -4.9105 0
M  V30 4048 C 398.992 -2.82996 -5.71132 0
M  V30 4049 C 396.679 -2.14154 -5.72347 0
M  V30 4050 C 397.677 -3.0263 -6.12294 0
M  V30 4051 O 397.365 -4.09198 -6.91962 0
M  V30 4052 H 397.097 -0.0236833 -0.675585 0
M  V30 4053 H 399.651 -0.715956 -1.92518 0
M  V30 4054 H 397.881 1.12044 -3.70112 0
M  V30 4055 H 399.57 0.806233 -3.97812 0
M  V30 4056 H 400.336 -1.60388 -4.57712 0
M  V30 4057 H 396.215 -0.377788 -4.59449 0
M  V30 4058 H 399.759 -3.52083 -6.02232 0
M  V30 4059 H 395.656 -2.28626 -6.03656 0
M  V30 4060 H 396.424 -4.06726 -7.10293 0
M  V30 4061 N 399.087 1.5561 -0.249682 0
M  V30 4062 C 400.315 2.03411 0.378352 0
M  V30 4063 C 400.73 1.12886 1.51335 0
M  V30 4064 O 400.087 0.143833 1.81932 0
M  V30 4065 C 400.138 3.50537 0.88351 0
M  V30 4066 O 399.859 4.37614 -0.20626 0
M  V30 4067 C 401.36 4.14113 1.58195 0
M  V30 4068 H 398.58 0.664994 0.08958 0
M  V30 4069 H 401.124 2.01044 -0.374357 0
M  V30 4070 H 399.279 3.5343 1.58639 0
M  V30 4071 H 399.693 5.24199 0.177782 0
M  V30 4072 H 401.167 5.18741 1.8871 0
M  V30 4073 H 401.644 3.60767 2.50487 0
M  V30 4074 H 402.25 4.15151 0.923573 0
M  V30 4075 N 400.565 -0.0233959 1.57583 0
M  V30 4076 C 401.513 -1.04063 2.08023 0
M  V30 4077 C 402.507 -1.37084 0.995204 0
M  V30 4078 O 403.713 -1.35923 1.18004 0
M  V30 4079 H 400.088 -0.353144 0.663922 0
M  V30 4080 H 402.059 -0.589453 2.9252 0
M  V30 4081 C 400.808 -2.33123 2.57971 0
M  V30 4082 H 400.131 -2.08577 3.4108 0
M  V30 4083 H 401.571 -3.02632 2.96967 0
M  V30 4084 C 400.03 -3.02483 1.48342 0
M  V30 4085 O 400.56 -3.92541 0.852898 0
M  V30 4086 N 398.766 -2.63909 1.21658 0
M  V30 4087 H 398.313 -1.90758 1.73116 0
M  V30 4088 H 398.271 -3.10633 0.485218 0
M  V30 4089 N 402.043 -1.548 -0.295768 0
M  V30 4090 C 403.006 -1.85363 -1.34808 0
M  V30 4091 C 404.006 -0.726817 -1.43436 0
M  V30 4092 O 405.196 -0.995088 -1.42981 0
M  V30 4093 C 402.328 -2.03859 -2.73229 0
M  V30 4094 H 403.521 -2.7941 -1.08949 0
M  V30 4095 H 401.074 -1.46942 -0.532702 0
M  V30 4096 H 401.809 -1.12117 -3.04303 0
M  V30 4097 H 401.594 -2.8588 -2.68356 0
M  V30 4098 H 403.084 -2.28857 -3.49305 0
M  V30 4099 N 403.521 0.559213 -1.47345 0
M  V30 4100 C 404.451 1.67622 -1.62558 0
M  V30 4101 C 405.432 1.63331 -0.475087 0
M  V30 4102 O 406.617 1.80983 -0.704182 0
M  V30 4103 C 403.747 3.0626 -1.63774 0
M  V30 4104 C 402.701 3.25397 -2.7803 0
M  V30 4105 C 402.027 4.64801 -2.64318 0
M  V30 4106 C 403.327 3.10965 -4.19641 0
M  V30 4107 H 405.021 1.55146 -2.56067 0
M  V30 4108 H 402.567 0.744961 -1.23233 0
M  V30 4109 H 404.52 3.84247 -1.73008 0
M  V30 4110 H 403.244 3.1969 -0.66825 0
M  V30 4111 H 401.903 2.49817 -2.68304 0
M  V30 4112 H 401.551 4.75028 -1.65401 0
M  V30 4113 H 401.251 4.78555 -3.40968 0
M  V30 4114 H 402.775 5.44926 -2.75478 0
M  V30 4115 H 404.189 3.78772 -4.30354 0
M  V30 4116 H 402.586 3.36229 -4.97062 0
M  V30 4117 H 403.656 2.07736 -4.38148 0
M  V30 4118 N 404.999 1.35443 0.805782 0
M  V30 4119 C 405.962 1.28301 1.89925 0
M  V30 4120 C 406.962 0.194285 1.59622 0
M  V30 4121 O 408.152 0.448036 1.6834 0
M  V30 4122 C 405.284 0.984997 3.2636 0
M  V30 4123 H 406.477 2.2553 1.97677 0
M  V30 4124 H 404.03 1.19979 1.00173 0
M  V30 4125 H 404.765 0.016603 3.24296 0
M  V30 4126 H 404.55 1.77269 3.4974 0
M  V30 4127 H 406.04 0.960651 4.064 0
M  V30 4128 N 406.477 -1.02803 1.19454 0
M  V30 4129 C 407.44 -2.09264 0.934955 0
M  V30 4130 C 408.44 -1.60576 -0.0849015 0
M  V30 4131 O 409.63 -1.73554 0.149933 0
M  V30 4132 C 406.762 -3.38482 0.40531 0
M  V30 4133 H 407.955 -2.33726 1.87916 0
M  V30 4134 H 405.508 -1.19426 1.00832 0
M  V30 4135 H 406.243 -3.19689 -0.544899 0
M  V30 4136 H 406.028 -3.75142 1.14065 0
M  V30 4137 H 407.518 -4.16894 0.242806 0
M  V30 4138 N 407.956 -0.998596 -1.21925 0
M  V30 4139 C 408.886 -0.573688 -2.26343 0
M  V30 4140 C 409.867 0.402296 -1.65274 0
M  V30 4141 O 411.052 0.291683 -1.91997 0
M  V30 4142 C 408.182 0.106839 -3.47136 0
M  V30 4143 C 407.136 -0.788269 -4.20678 0
M  V30 4144 C 406.462 0.0254927 -5.34694 0
M  V30 4145 C 407.762 -2.08784 -4.78755 0
M  V30 4146 H 409.456 -1.44651 -2.62138 0
M  V30 4147 H 407.002 -0.696975 -1.26009 0
M  V30 4148 H 408.955 0.415531 -4.19346 0
M  V30 4149 H 407.679 1.01424 -3.10452 0
M  V30 4150 H 406.338 -1.08069 -3.50309 0
M  V30 4151 H 405.986 0.933989 -4.94253 0
M  V30 4152 H 405.686 -0.570437 -5.84825 0
M  V30 4153 H 407.21 0.328147 -6.09718 0
M  V30 4154 H 408.624 -1.84272 -5.42878 0
M  V30 4155 H 407.021 -2.63307 -5.39249 0
M  V30 4156 H 408.091 -2.76284 -3.98491 0
M  V30 4157 N 409.434 1.37368 -0.772513 0
M  V30 4158 C 410.397 2.28601 -0.165541 0
M  V30 4159 C 411.397 1.48062 0.627238 0
M  V30 4160 O 412.587 1.68268 0.450715 0
M  V30 4161 C 409.719 3.32023 0.772897 0
M  V30 4162 H 410.912 2.83787 -0.969787 0
M  V30 4163 H 408.465 1.46647 -0.540775 0
M  V30 4164 H 409.2 2.81962 1.60212 0
M  V30 4165 H 408.985 3.91555 0.206585 0
M  V30 4166 H 410.475 4.00197 1.19298 0
M  V30 4167 N 410.912 0.523116 1.48665 0
M  V30 4168 C 411.842 -0.23231 2.32342 0
M  V30 4169 C 412.823 -0.941637 1.41659 0
M  V30 4170 O 414.008 -0.928751 1.70552 0
M  V30 4171 C 411.138 -1.28387 3.22698 0
M  V30 4172 C 410.092 -0.693098 4.22351 0
M  V30 4173 C 409.418 -1.8468 5.01794 0
M  V30 4174 C 410.718 0.33063 5.21252 0
M  V30 4175 H 412.412 0.466192 2.95748 0
M  V30 4176 H 409.958 0.225643 1.42221 0
M  V30 4177 H 411.911 -1.82024 3.80059 0
M  V30 4178 H 410.635 -2.01186 2.57278 0
M  V30 4179 H 409.294 -0.178299 3.66166 0
M  V30 4180 H 408.942 -2.56301 4.32804 0
M  V30 4181 H 408.642 -1.45747 5.69238 0
M  V30 4182 H 410.166 -2.38709 5.62006 0
M  V30 4183 H 411.58 -0.118407 5.73178 0
M  V30 4184 H 409.977 0.636974 5.9671 0
M  V30 4185 H 411.047 1.23883 4.68808 0
M  V30 4186 N 412.39 -1.55475 0.257931 0
M  V30 4187 C 413.353 -2.20551 -0.623706 0
M  V30 4188 C 414.353 -1.17809 -1.09443 0
M  V30 4189 O 415.543 -1.42823 -0.997362 0
M  V30 4190 C 412.675 -2.85784 -1.8585 0
M  V30 4191 H 413.868 -2.99848 -0.0557743 0
M  V30 4192 H 411.421 -1.56298 0.0084422 0
M  V30 4193 H 412.156 -2.10453 -2.46739 0
M  V30 4194 H 411.941 -3.61057 -1.52907 0
M  V30 4195 H 413.431 -3.35553 -2.48584 0
M  V30 4196 N 413.868 0.0150385 -1.57593 0
M  V30 4197 C 415.145 0.7392 -1.81094 0
M  V30 4198 C 415.525 1.92817 -0.859344 0
M  V30 4199 O 414.873 2.28301 0.095362 0
M  V30 4200 C 415.083 1.15907 -3.29191 0
M  V30 4201 C 416.431 1.56918 -3.9454 0
M  V30 4202 O 417.455 1.25328 -3.33424 0
M  V30 4203 O 416.314 2.15604 -5.02173 0
M  V30 4204 H 413.408 0.358631 -0.745193 0
M  V30 4205 H 415.954 -0.00926156 -1.69697 0
M  V30 4206 H 414.726 0.310921 -3.90063 0
M  V30 4207 H 414.349 1.96711 -3.45529 0
M  V30 4208 N 415.346 1.54954 0.287554 0
M  V30 4209 C 416.309 1.86076 1.33823 0
M  V30 4210 C 417.309 0.734414 1.43049 0
M  V30 4211 O 418.499 1.00266 1.42452 0
M  V30 4212 C 415.631 2.05305 2.72144 0
M  V30 4213 H 416.824 2.79984 1.07465 0
M  V30 4214 H 414.377 1.47223 0.524902 0
M  V30 4215 H 415.112 1.1373 3.03704 0
M  V30 4216 H 414.897 2.873 2.66836 0
M  V30 4217 H 416.387 2.30706 3.48087 0
M  V30 4218 N 416.824 -0.551391 1.4764 0
M  V30 4219 C 417.787 -1.64007 1.60107 0
M  V30 4220 C 418.787 -1.53601 0.47576 0
M  V30 4221 O 419.977 -1.57655 0.740988 0
M  V30 4222 C 417.109 -3.03569 1.55108 0
M  V30 4223 H 418.302 -1.543 2.57161 0
M  V30 4224 H 415.855 -0.771776 1.35917 0
M  V30 4225 H 416.59 -3.18804 0.594519 0
M  V30 4226 H 416.375 -3.12532 2.36783 0
M  V30 4227 H 417.865 -3.82762 1.66982 0
M  V30 4228 N 418.302 -1.35869 -0.798587 0
M  V30 4229 C 419.55 -1.29332 -1.55298 0
M  V30 4230 C 419.871 0.129729 -1.94568 0
M  V30 4231 O 419.141 1.06796 -1.6423 0
M  V30 4232 H 417.721 -0.475737 -0.57592 0
M  V30 4233 H 420.383 -1.70062 -0.952093 0
M  V30 4234 H 419.479 -1.91458 -2.46476 0
M  V30 4235 N 419.78 1.02168 -1.19998 0
M  V30 4236 C 420.71 2.12488 -0.96804 0
M  V30 4237 C 421.691 1.69799 0.101185 0
M  V30 4238 O 422.876 1.94121 -0.0552993 0
M  V30 4239 C 420.006 3.43479 -0.513776 0
M  V30 4240 C 418.96 3.99884 -1.52566 0
M  V30 4241 C 418.286 5.26582 -0.928214 0
M  V30 4242 C 419.586 4.33861 -2.90795 0
M  V30 4243 H 421.28 2.32149 -1.89069 0
M  V30 4244 H 418.826 1.11564 -0.910468 0
M  V30 4245 H 420.779 4.20036 -0.338774 0
M  V30 4246 H 419.503 3.23561 0.444493 0
M  V30 4247 H 418.162 3.25429 -1.68794 0
M  V30 4248 H 417.81 5.02986 0.0378289 0
M  V30 4249 H 417.51 5.65284 -1.60397 0
M  V30 4250 H 419.034 6.05799 -0.764167 0
M  V30 4251 H 420.448 5.01327 -2.78109 0
M  V30 4252 H 418.845 4.83664 -3.55231 0
M  V30 4253 H 419.915 3.42848 -3.42904 0
M  V30 4254 N 421.258 1.00505 1.21394 0
M  V30 4255 C 422.669 0.721082 1.72213 0
M  V30 4256 C 423.02 -0.761263 1.80829 0
M  V30 4257 O 422.145 -1.59464 1.46288 0
M  V30 4258 C 422.74 1.30228 3.12772 0
M  V30 4259 C 421.299 1.06743 3.60947 0
M  V30 4260 C 420.446 1.41507 2.38477 0
M  V30 4261 H 423.397 1.17594 1.06571 0
M  V30 4262 H 423.418 0.686955 3.74247 0
M  V30 4263 H 422.93 2.38115 3.06468 0
M  V30 4264 H 421.031 0.00572162 3.726 0
M  V30 4265 H 421.144 1.73936 4.46411 0
M  V30 4266 H 419.508 0.833852 2.40664 0
M  V30 4267 H 420.291 2.50424 2.34824 0
M  V30 4268 N 422.737 -1.36956 0.779787 0
M  V30 4269 C 424.153 -1.52817 0.460342 0
M  V30 4270 C 424.353 -1.7361 -1.02283 0
M  V30 4271 O 423.409 -1.76207 -1.80852 0
M  V30 4272 C 424.722 -2.71983 1.28241 0
M  V30 4273 C 426.27 -2.85849 1.27512 0
M  V30 4274 C 426.745 -4.08008 2.08072 0
M  V30 4275 N 428.236 -4.15135 2.05467 0
M  V30 4276 C 428.971 -5.08711 2.64577 0
M  V30 4277 N 428.467 -6.07792 3.32506 0
M  V30 4278 N 430.26 -5.01254 2.54363 0
M  V30 4279 H 422.411 -1.21713 1.74068 0
M  V30 4280 H 424.674 -0.593294 0.739396 0
M  V30 4281 H 424.38 -2.63109 2.33381 0
M  V30 4282 H 424.254 -3.65882 0.917088 0
M  V30 4283 H 426.641 -2.94189 0.231686 0
M  V30 4284 H 426.722 -1.92886 1.68014 0
M  V30 4285 H 426.366 -4.00429 3.12441 0
M  V30 4286 H 426.296 -5.001 1.64947 0
M  V30 4287 H 428.787 -3.44189 1.5602 0
M  V30 4288 H 429.1 -6.75739 3.74963 0
M  V30 4289 H 427.445 -6.08047 3.36606 0
M  V30 4290 H 430.636 -4.22795 2.00902 0
M  V30 4291 H 430.809 -5.73995 3.00722 0
M  V30 4292 N 424.215 -0.530993 -1.48385 0
M  V30 4293 C 425.178 0.220497 -2.28137 0
M  V30 4294 C 426.178 0.866851 -1.35434 0
M  V30 4295 O 427.368 0.726746 -1.58316 0
M  V30 4296 C 424.5 1.31921 -3.1434 0
M  V30 4297 H 425.693 -0.479714 -2.96038 0
M  V30 4298 H 423.246 -0.286968 -1.53643 0
M  V30 4299 H 423.981 2.05264 -2.51072 0
M  V30 4300 H 423.766 0.86085 -3.82533 0
M  V30 4301 H 425.256 1.84776 -3.74497 0
M  V30 4302 N 425.693 1.55336 -0.266172 0
M  V30 4303 C 426.918 2.04258 0.359661 0
M  V30 4304 C 427.343 1.14359 1.49344 0
M  V30 4305 O 426.701 0.140369 1.80756 0
M  V30 4306 C 426.749 3.50997 0.826635 0
M  V30 4307 O 425.853 3.64204 1.93466 0
M  V30 4308 H 425.194 0.659668 0.075727 0
M  V30 4309 H 427.724 2.00694 -0.39786 0
M  V30 4310 H 427.734 3.9219 1.12477 0
M  V30 4311 H 426.409 4.159 -0.00293032 0
M  V30 4312 H 424.986 3.34913 1.63974 0
M  V30 4313 N 427.171 -0.0066808 1.57599 0
M  V30 4314 C 428.396 -0.707738 1.94951 0
M  V30 4315 C 428.821 -1.66882 0.867868 0
M  V30 4316 O 428.179 -1.80457 -0.17458 0
M  V30 4317 C 428.227 -1.42162 3.31394 0
M  V30 4318 O 427.331 -2.53578 3.25226 0
M  V30 4319 H 426.672 -0.188752 0.636607 0
M  V30 4320 H 429.202 0.0445193 2.04552 0
M  V30 4321 H 429.212 -1.78655 3.66806 0
M  V30 4322 H 427.887 -0.716903 4.09675 0
M  V30 4323 H 426.464 -2.19463 3.01481 0
M  V30 4324 N 428.649 -1.55105 -0.279332 0
M  V30 4325 C 429.579 -1.90557 -1.34945 0
M  V30 4326 C 430.56 -0.766738 -1.51839 0
M  V30 4327 O 431.745 -1.02434 -1.64988 0
M  V30 4328 C 428.875 -2.17193 -2.71006 0
M  V30 4329 C 427.829 -3.33021 -2.68851 0
M  V30 4330 C 427.155 -3.45123 -4.08405 0
M  V30 4331 C 428.455 -4.69578 -2.28678 0
M  V30 4332 H 430.149 -2.80188 -1.05522 0
M  V30 4333 H 427.695 -1.34811 -0.506173 0
M  V30 4334 H 429.648 -2.40581 -3.45975 0
M  V30 4335 H 428.372 -1.24355 -3.01999 0
M  V30 4336 H 427.031 -3.0959 -1.9634 0
M  V30 4337 H 426.679 -2.49762 -4.3661 0
M  V30 4338 H 426.379 -4.22995 -4.07859 0
M  V30 4339 H 427.903 -3.70796 -4.85121 0
M  V30 4340 H 429.317 -4.92553 -2.93368 0
M  V30 4341 H 427.714 -5.5032 -2.39306 0
M  V30 4342 H 428.784 -4.68828 -1.23807 0
M  V30 4343 N 430.127 0.543554 -1.4793 0
M  V30 4344 C 431.074 1.64942 -1.6144 0
M  V30 4345 C 432.044 1.59692 -0.456903 0
M  V30 4346 O 433.229 1.78321 -0.678688 0
M  V30 4347 C 430.369 3.03238 -1.64744 0
M  V30 4348 C 429.482 3.18823 -2.91506 0
M  V30 4349 C 428.617 4.47599 -2.86057 0
M  V30 4350 C 427.656 4.56664 -4.07584 0
M  V30 4351 N 426.793 5.76811 -4.00292 0
M  V30 4352 H 431.633 1.52733 -2.55884 0
M  V30 4353 H 429.17 0.7438 -1.2691 0
M  V30 4354 H 431.128 3.83339 -1.64641 0
M  V30 4355 H 429.758 3.1425 -0.738017 0
M  V30 4356 H 428.81 2.32064 -3.01414 0
M  V30 4357 H 430.122 3.21384 -3.81463 0
M  V30 4358 H 429.276 5.35975 -2.84281 0
M  V30 4359 H 428.015 4.47538 -1.93807 0
M  V30 4360 H 427.02 3.66697 -4.09651 0
M  V30 4361 H 428.245 4.58474 -5.00978 0
M  V30 4362 H 426.191 5.77673 -3.10853 0
M  V30 4363 H 426.108 5.80808 -4.8394 0
M  V30 4364 H 427.376 6.67512 -4.02553 0
M  V30 4365 N 431.605 1.3629 0.791371 0
M  V30 4366 C 432.568 1.30309 1.88553 0
M  V30 4367 C 433.568 0.211204 1.59407 0
M  V30 4368 O 434.758 0.465865 1.67855 0
M  V30 4369 C 431.89 1.01956 3.25297 0
M  V30 4370 H 433.083 2.27614 1.95273 0
M  V30 4371 H 430.636 1.21035 0.988953 0
M  V30 4372 H 431.371 0.050998 3.2426 0
M  V30 4373 H 431.156 1.80968 3.4784 0
M  V30 4374 H 432.646 1.0037 4.05359 0
M  V30 4375 N 433.083 -1.0153 1.20538 0
M  V30 4376 C 434.013 -2.11972 0.979295 0
M  V30 4377 C 434.994 -1.6985 -0.0921787 0
M  V30 4378 O 436.179 -1.94089 0.0655932 0
M  V30 4379 C 433.309 -3.43201 0.531984 0
M  V30 4380 C 432.263 -3.9907 1.54685 0
M  V30 4381 C 431.589 -5.26082 0.956127 0
M  V30 4382 C 432.889 -4.32313 2.93092 0
M  V30 4383 H 434.583 -2.31143 1.90298 0
M  V30 4384 H 432.129 -1.11079 0.916372 0
M  V30 4385 H 434.082 -4.1985 0.361044 0
M  V30 4386 H 432.806 -3.23792 -0.427327 0
M  V30 4387 H 431.465 -3.2453 1.70517 0
M  V30 4388 H 431.113 -5.02999 -0.0111538 0
M  V30 4389 H 430.813 -5.64426 1.63393 0
M  V30 4390 H 432.337 -6.05386 0.796284 0
M  V30 4391 H 433.751 -4.99845 2.80763 0
M  V30 4392 H 432.148 -4.81774 3.57791 0
M  V30 4393 H 433.218 -3.41025 3.44717 0
M  V30 4394 N 434.561 -1.01147 -1.20859 0
M  V30 4395 C 435.789 -0.716911 -1.94082 0
M  V30 4396 C 436.204 0.721568 -1.74467 0
M  V30 4397 O 435.561 1.48889 -1.05539 0
M  V30 4398 C 435.612 -1.03662 -3.46318 0
M  V30 4399 O 435.333 -2.4186 -3.65288 0
M  V30 4400 C 436.834 -0.762386 -4.36695 0
M  V30 4401 H 434.054 -0.26367 -0.617024 0
M  V30 4402 H 436.598 -1.35127 -1.53496 0
M  V30 4403 H 434.753 -0.447757 -3.84804 0
M  V30 4404 H 435.167 -2.53224 -4.59323 0
M  V30 4405 H 436.641 -1.03621 -5.42187 0
M  V30 4406 H 437.118 0.303514 -4.3815 0
M  V30 4407 H 437.724 -1.33316 -4.03865 0
M  V30 4408 N 436.039 1.36541 -0.78704 0
M  V30 4409 C 437.267 2.03561 -0.370199 0
M  V30 4410 C 437.682 1.59347 1.01263 0
M  V30 4411 O 437.039 0.781781 1.64907 0
M  V30 4412 C 437.09 3.59033 -0.421614 0
M  V30 4413 O 436.811 4.01634 -1.7499 0
M  V30 4414 C 438.312 4.433 0.00489763 0
M  V30 4415 H 435.532 0.653346 -0.152904 0
M  V30 4416 H 438.076 1.74566 -1.06522 0
M  V30 4417 H 436.231 3.86746 0.224971 0
M  V30 4418 H 436.645 4.96217 -1.69909 0
M  V30 4419 H 438.119 5.51939 -0.0822184 0
M  V30 4420 H 438.596 4.26285 1.05723 0
M  V30 4421 H 439.202 4.20843 -0.614085 0
M  V30 4422 N 437.518 0.538854 1.48102 0
M  V30 4423 C 438.765 0.0080018 2.02498 0
M  V30 4424 C 439.093 -1.33437 1.41509 0
M  V30 4425 O 438.348 -1.87709 0.553507 0
M  V30 4426 C 438.647 -0.153808 3.57069 0
M  V30 4427 C 438.313 1.11533 4.36888 0
M  V30 4428 C 436.975 1.46314 4.58417 0
M  V30 4429 C 439.327 1.95718 4.83057 0
M  V30 4430 C 436.655 2.6516 5.23361 0
M  V30 4431 C 439.007 3.13751 5.49312 0
M  V30 4432 C 437.671 3.48866 5.69077 0
M  V30 4433 H 436.941 0.00292807 0.740994 0
M  V30 4434 H 439.588 0.706668 1.77984 0
M  V30 4435 H 437.893 -0.935309 3.80472 0
M  V30 4436 H 439.59 -0.579607 3.96789 0
M  V30 4437 H 436.18 0.834484 4.20398 0
M  V30 4438 H 440.364 1.70158 4.66219 0
M  V30 4439 H 435.62 2.92558 5.36861 0
M  V30 4440 H 439.794 3.79282 5.84053 0
M  V30 4441 H 437.421 4.41054 6.19173 0
M  V30 4442 N 438.996 -1.55193 0.274407 0
M  V30 4443 C 440.224 -2.03987 -0.345943 0
M  V30 4444 C 440.639 -1.15279 -1.4952 0
M  V30 4445 O 439.996 -0.172759 -1.8168 0
M  V30 4446 C 440.047 -3.51898 -0.827631 0
M  V30 4447 O 439.768 -4.37231 0.275855 0
M  V30 4448 C 441.269 -4.16577 -1.51587 0
M  V30 4449 H 438.489 -0.666335 -0.0789892 0
M  V30 4450 H 441.033 -2.00423 0.406294 0
M  V30 4451 H 439.188 -3.55909 -1.52996 0
M  V30 4452 H 439.602 -5.24415 -0.0943638 0
M  V30 4453 H 441.076 -5.21678 -1.80433 0
M  V30 4454 H 441.553 -3.64707 -2.44716 0
M  V30 4455 H 442.159 -4.16568 -0.857409 0
M  V30 4456 N 440.474 -0.00167713 -1.576 0
M  V30 4457 C 441.722 0.681471 -1.90264 0
M  V30 4458 C 442.043 1.7422 -0.875924 0
M  V30 4459 O 441.313 1.95709 0.0864412 0
M  V30 4460 H 439.893 0.254696 -0.702239 0
M  V30 4461 H 442.555 -0.0429996 -1.94853 0
M  V30 4462 H 441.651 1.15166 -2.90075 0
M  V30 4463 N 441.952 1.55251 0.271103 0
M  V30 4464 C 442.882 1.9127 1.33933 0
M  V30 4465 C 443.863 0.77478 1.5143 0
M  V30 4466 O 445.048 1.03307 1.64442 0
M  V30 4467 C 442.178 2.18627 2.69851 0
M  V30 4468 C 441.132 3.34442 2.67081 0
M  V30 4469 C 440.458 3.47284 4.06569 0
M  V30 4470 C 441.758 4.70784 2.26185 0
M  V30 4471 H 443.452 2.80744 1.04035 0
M  V30 4472 H 440.998 1.35077 0.499017 0
M  V30 4473 H 442.951 2.42413 3.44694 0
M  V30 4474 H 441.675 1.25955 3.01335 0
M  V30 4475 H 440.334 3.10627 1.94695 0
M  V30 4476 H 439.982 2.52074 4.35279 0
M  V30 4477 H 439.682 4.25152 4.0561 0
M  V30 4478 H 441.206 3.73363 4.83148 0
M  V30 4479 H 442.62 4.94102 2.90751 0
M  V30 4480 H 441.017 5.51582 2.36384 0
M  V30 4481 H 442.087 4.69478 1.21319 0
M  V30 4482 N 443.43 -0.535701 1.48216 0
M  V30 4483 C 444.841 -1.11769 1.49548 0
M  V30 4484 C 445.192 -1.94442 0.26207 0
M  V30 4485 O 444.317 -2.06987 -0.631287 0
M  V30 4486 C 444.912 -2.03367 2.70975 0
M  V30 4487 C 443.471 -2.56795 2.75196 0
M  V30 4488 C 442.618 -1.33631 2.42977 0
M  V30 4489 H 445.569 -0.321232 1.55415 0
M  V30 4490 H 445.59 -2.87569 2.49167 0
M  V30 4491 H 445.102 -1.43169 3.60727 0
M  V30 4492 H 443.203 -3.20731 1.89638 0
M  V30 4493 H 443.316 -2.9632 3.76472 0
M  V30 4494 H 441.68 -1.6502 1.94012 0
M  V30 4495 H 442.463 -0.75194 3.34964 0
M  V30 4496 N 444.908 -1.36708 -0.784132 0
M  V30 4497 C 445.858 -1.2799 -1.88686 0
M  V30 4498 C 446.842 -0.170282 -1.59996 0
M  V30 4499 O 448.034 -0.403571 -1.72338 0
M  V30 4500 C 445.163 -1.07674 -3.25977 0
M  V30 4501 C 444.249 -2.23127 -3.60659 0
M  V30 4502 N 444.64 -3.48467 -3.66612 0
M  V30 4503 C 442.938 -2.15009 -3.90752 0
M  V30 4504 C 443.639 -4.24525 -3.97685 0
M  V30 4505 N 442.615 -3.53524 -4.12943 0
M  V30 4506 H 446.417 -2.22927 -1.91522 0
M  V30 4507 H 443.931 -1.29503 -0.979933 0
M  V30 4508 H 445.928 -0.995151 -4.04849 0
M  V30 4509 H 444.588 -0.13643 -3.24413 0
M  V30 4510 H 445.599 -3.82534 -3.49125 0
M  V30 4511 H 442.276 -1.28963 -3.97083 0
M  V30 4512 H 443.666 -5.32944 -4.0917 0
M  V30 4513 N 446.386 1.0089 -1.21074 0
M  V30 4514 C 447.802 1.2695 -0.967257 0
M  V30 4515 C 448.002 1.9846 0.348673 0
M  V30 4516 O 447.058 2.28459 1.0753 0
M  V30 4517 C 448.371 2.09697 -2.15517 0
M  V30 4518 C 449.919 2.22937 -2.197 0
M  V30 4519 C 450.394 3.09064 -3.37999 0
M  V30 4520 N 451.885 3.16653 -3.38061 0
M  V30 4521 C 452.62 3.8354 -4.26245 0
M  V30 4522 N 452.116 4.52488 -5.2462 0
M  V30 4523 N 453.909 3.80141 -4.14064 0
M  V30 4524 H 446.06 0.529005 -2.05707 0
M  V30 4525 H 448.323 0.296148 -0.900556 0
M  V30 4526 H 448.029 1.64497 -3.10859 0
M  V30 4527 H 447.903 3.10444 -2.14253 0
M  V30 4528 H 450.29 2.67357 -1.24916 0
M  V30 4529 H 450.371 1.21673 -2.2501 0
M  V30 4530 H 450.015 2.65347 -4.33074 0
M  V30 4531 H 449.945 4.10433 -3.29928 0
M  V30 4532 H 452.436 2.67566 -2.66865 0
M  V30 4533 H 452.749 5.01219 -5.88217 0
M  V30 4534 H 451.094 4.51288 -5.28549 0
M  V30 4535 H 454.285 3.25427 -3.36474 0
M  V30 4536 H 454.458 4.31992 -4.82998 0
M  V30 4537 N 447.864 1.01787 1.20321 0
M  V30 4538 C 449.111 0.707936 1.89722 0
M  V30 4539 C 449.439 -0.762535 1.78929 0
M  V30 4540 O 448.694 -1.56977 1.16861 0
M  V30 4541 C 448.993 1.09076 3.40349 0
M  V30 4542 C 448.659 2.55765 3.71342 0
M  V30 4543 C 447.321 2.95845 3.79511 0
M  V30 4544 C 449.673 3.50723 3.85542 0
M  V30 4545 C 447.001 4.2982 3.99339 0
M  V30 4546 C 449.353 4.84387 4.06881 0
M  V30 4547 C 448.017 5.24172 4.1328 0
M  V30 4548 H 447.287 0.259052 0.694243 0
M  V30 4549 H 449.934 1.27868 1.42555 0
M  V30 4550 H 448.239 0.438453 3.89339 0
M  V30 4551 H 449.936 0.828636 3.92345 0
M  V30 4552 H 446.526 2.2371 3.65584 0
M  V30 4553 H 450.71 3.20916 3.78585 0
M  V30 4554 H 445.966 4.60196 4.02529 0
M  V30 4555 H 450.14 5.57891 4.1681 0
M  V30 4556 H 447.767 6.27997 4.28396 0
M  V30 4557 N 449.342 -1.36122 0.79427 0
M  V30 4558 C 450.252 -2.33769 0.197296 0
M  V30 4559 C 451.268 -1.61276 -0.653153 0
M  V30 4560 O 452.444 -1.9323 -0.5678 0
M  V30 4561 C 449.509 -3.40474 -0.654098 0
M  V30 4562 C 448.57 -4.28759 0.215411 0
M  V30 4563 C 447.803 -5.30368 -0.595443 0
M  V30 4564 O 448.026 -5.40211 -1.83107 0
M  V30 4565 O 446.96 -6.019 0.00721351 0
M  V30 4566 H 450.786 -2.86597 1.00478 0
M  V30 4567 H 448.371 -1.38676 0.555818 0
M  V30 4568 H 450.253 -4.05703 -1.13944 0
M  V30 4569 H 448.928 -2.89937 -1.43938 0
M  V30 4570 H 447.835 -3.66554 0.747615 0
M  V30 4571 H 449.168 -4.82661 0.964332 0
M  V30 4572 N 450.82 -0.546701 -1.47814 0
M  V30 4573 C 452.066 -0.0187684 -2.02791 0
M  V30 4574 C 452.399 1.32338 -1.42128 0
M  V30 4575 O 451.674 1.85867 -0.573023 0
M  V30 4576 C 451.957 0.0854985 -3.59998 0
M  V30 4577 C 451.81 -1.283 -4.31114 0
M  V30 4578 C 453.129 0.80412 -4.32691 0
M  V30 4579 H 450.248 -0.0082946 -0.736953 0
M  V30 4580 H 452.89 -0.706962 -1.76358 0
M  V30 4581 H 451.04 0.671609 -3.82651 0
M  V30 4582 H 452.712 -1.91151 -4.19832 0
M  V30 4583 H 450.955 -1.86049 -3.91878 0
M  V30 4584 H 451.626 -1.16287 -5.39612 0
M  V30 4585 H 454.102 0.306576 -4.14969 0
M  V30 4586 H 452.978 0.846011 -5.42341 0
M  V30 4587 H 453.239 1.85802 -4.01161 0
M  V30 4588 N 452.299 1.55045 -0.282633 0
M  V30 4589 C 453.545 2.00056 0.332481 0
M  V30 4590 C 453.878 1.1708 1.54939 0
M  V30 4591 O 453.153 0.2427 1.9298 0
M  V30 4592 C 453.436 3.53086 0.70725 0
M  V30 4593 C 453.289 4.46813 -0.517521 0
M  V30 4594 C 454.608 4.12245 1.54084 0
M  V30 4595 H 451.727 0.727268 0.119373 0
M  V30 4596 H 454.369 1.85932 -0.391076 0
M  V30 4597 H 452.519 3.65253 1.32372 0
M  V30 4598 H 454.191 4.46579 -1.15607 0
M  V30 4599 H 452.434 4.18163 -1.1542 0
M  V30 4600 H 453.105 5.51595 -0.211426 0
M  V30 4601 H 455.581 4.03401 1.02013 0
M  V30 4602 H 454.457 5.19515 1.77186 0
M  V30 4603 H 454.718 3.62951 2.52427 0
M  V30 4604 N 453.777 0.010035 1.57597 0
M  V30 4605 C 454.707 -0.976857 2.12084 0
M  V30 4606 C 455.688 -1.35191 1.03235 0
M  V30 4607 O 456.873 -1.43389 1.3097 0
M  V30 4608 C 454.003 -2.26548 2.63236 0
M  V30 4609 C 452.957 -2.03175 3.76701 0
M  V30 4610 C 452.283 -3.38138 4.14206 0
M  V30 4611 C 453.583 -1.38625 5.03568 0
M  V30 4612 H 455.277 -0.523145 2.94794 0
M  V30 4613 H 452.823 -0.250195 1.4181 0
M  V30 4614 H 454.776 -2.95952 2.99984 0
M  V30 4615 H 453.5 -2.74051 1.77661 0
M  V30 4616 H 452.159 -1.36195 3.40362 0
M  V30 4617 H 451.807 -3.83363 3.25641 0
M  V30 4618 H 451.507 -3.23312 4.90656 0
M  V30 4619 H 453.031 -4.08841 4.53521 0
M  V30 4620 H 454.445 -1.98 5.38023 0
M  V30 4621 H 452.842 -1.34256 5.84889 0
M  V30 4622 H 453.912 -0.356722 4.83586 0
M  V30 4623 N 455.255 -1.55392 -0.262866 0
M  V30 4624 C 456.165 -1.92077 -1.34698 0
M  V30 4625 C 457.181 -0.819227 -1.53508 0
M  V30 4626 O 458.357 -1.11921 -1.67439 0
M  V30 4627 C 455.422 -2.19407 -2.68443 0
M  V30 4628 C 454.483 -3.42905 -2.58292 0
M  V30 4629 C 453.716 -3.68921 -3.85659 0
M  V30 4630 O 453.939 -2.97275 -4.8681 0
M  V30 4631 O 452.873 -4.62455 -3.85252 0
M  V30 4632 H 456.699 -2.84384 -1.06581 0
M  V30 4633 H 454.284 -1.42069 -0.462264 0
M  V30 4634 H 456.166 -2.38365 -3.47506 0
M  V30 4635 H 454.841 -1.30282 -2.96325 0
M  V30 4636 H 453.748 -3.29272 -1.7757 0
M  V30 4637 H 455.081 -4.32282 -2.35358 0
M  V30 4638 N 456.733 0.527833 -1.48498 0
M  V30 4639 C 457.683 1.62844 -1.5958 0
M  V30 4640 C 458.667 1.54397 -0.452809 0
M  V30 4641 O 459.859 1.62381 -0.704364 0
M  V30 4642 C 456.988 3.01557 -1.64067 0
M  V30 4643 C 456.074 3.151 -2.83853 0
M  V30 4644 N 456.465 2.9861 -4.08247 0
M  V30 4645 C 454.763 3.46158 -2.8123 0
M  V30 4646 C 455.464 3.15626 -4.88626 0
M  V30 4647 N 454.44 3.43298 -4.21483 0
M  V30 4648 H 458.242 1.48708 -2.53502 0
M  V30 4649 H 455.756 0.733343 -1.44899 0
M  V30 4650 H 457.753 3.8062 -1.70101 0
M  V30 4651 H 456.413 3.16783 -0.712636 0
M  V30 4652 H 457.424 2.75329 -4.3865 0
M  V30 4653 H 454.101 3.67728 -1.97692 0
M  V30 4654 H 455.491 3.07596 -5.97356 0
M  V30 4655 N 458.211 1.37122 0.776871 0
M  V30 4656 C 459.159 1.32549 1.91138 0
M  V30 4657 C 460.153 0.215119 1.68029 0
M  V30 4658 O 461.359 0.382852 1.75881 0
M  V30 4659 H 457.734 0.412952 0.62847 0
M  V30 4660 H 459.705 2.28332 1.92112 0
M  V30 4661 C 458.454 1.14422 3.28333 0
M  V30 4662 H 457.777 1.99115 3.46689 0
M  V30 4663 H 459.217 1.15272 4.0803 0
M  V30 4664 C 457.676 -0.150434 3.36564 0
M  V30 4665 O 458.206 -1.13584 3.85307 0
M  V30 4666 N 456.412 -0.19939 2.89915 0
M  V30 4667 H 455.959 0.603142 2.5044 0
M  V30 4668 H 455.917 -1.06526 2.95803 0
M  V30 4669 N 459.689 -1.00246 1.21608 0
M  V30 4670 C 460.937 -1.73717 1.0328 0
M  V30 4671 C 461.258 -1.90102 -0.434318 0
M  V30 4672 O 460.528 -1.45376 -1.31311 0
M  V30 4673 H 459.108 -0.643613 0.379172 0
M  V30 4674 H 461.77 -1.20787 1.52959 0
M  V30 4675 H 460.866 -2.73535 1.50283 0
M  V30 4676 N 461.167 -1.02423 -1.1978 0
M  V30 4677 C 462.413 -0.719051 -1.89625 0
M  V30 4678 C 462.746 0.750083 -1.7913 0
M  V30 4679 O 462.021 1.54574 -1.18056 0
M  V30 4680 C 462.304 -1.16499 -3.40735 0
M  V30 4681 C 462.157 -2.695 -3.60125 0
M  V30 4682 C 463.476 -0.742166 -4.33797 0
M  V30 4683 H 460.595 -0.26269 -0.688595 0
M  V30 4684 H 463.237 -1.27333 -1.41018 0
M  V30 4685 H 461.387 -0.69341 -3.82262 0
M  V30 4686 H 463.059 -3.24569 -3.278 0
M  V30 4687 H 461.302 -3.10113 -3.03336 0
M  V30 4688 H 461.973 -2.95757 -4.66081 0
M  V30 4689 H 464.449 -1.1477 -3.99959 0
M  V30 4690 H 463.325 -1.08213 -5.38127 0
M  V30 4691 H 463.586 0.355747 -4.40666 0
M  V30 4692 N 462.645 1.35699 -0.801477 0
M  V30 4693 C 464.061 1.52065 -0.484596 0
M  V30 4694 C 464.261 1.75215 0.995084 0
M  V30 4695 O 463.317 1.79061 1.78026 0
M  V30 4696 C 464.63 2.69908 -1.32552 0
M  V30 4697 C 466.178 2.83784 -1.32044 0
M  V30 4698 C 466.653 4.04646 -2.14536 0
M  V30 4699 N 468.144 4.11814 -2.12046 0
M  V30 4700 C 468.879 5.04437 -2.72636 0
M  V30 4701 N 468.375 6.02426 -3.42133 0
M  V30 4702 N 470.168 4.97144 -2.62305 0
M  V30 4703 H 462.319 1.18928 -1.75983 0
M  V30 4704 H 464.582 0.581455 -0.748741 0
M  V30 4705 H 464.288 2.59363 -2.37537 0
M  V30 4706 H 464.162 3.64376 -0.975181 0
M  V30 4707 H 466.549 2.93783 -0.27846 0
M  V30 4708 H 466.63 1.90188 -1.71062 0
M  V30 4709 H 466.274 3.95407 -3.18772 0
M  V30 4710 H 466.204 4.97413 -1.72882 0
M  V30 4711 H 468.695 3.41664 -1.61476 0
M  V30 4712 H 469.008 6.69688 -3.85666 0
M  V30 4713 H 467.353 6.02615 -3.46237 0
M  V30 4714 H 470.544 4.19546 -2.07603 0
M  V30 4715 H 470.717 5.69138 -3.09815 0
M  V30 4716 N 464.123 0.554532 1.47522 0
M  V30 4717 C 465.369 0.0377449 2.03365 0
M  V30 4718 C 465.724 -1.29654 1.42154 0
M  V30 4719 O 465.017 -1.83022 0.566865 0
M  V30 4720 C 465.211 -0.115927 3.57212 0
M  V30 4721 C 465.04 1.20191 4.33341 0
M  V30 4722 C 463.81 1.76849 4.73342 0
M  V30 4723 C 466.008 2.11849 4.68641 0
M  V30 4724 N 463.99 3.02665 5.34104 0
M  V30 4725 C 465.361 3.22245 5.29677 0
M  V30 4726 C 467.416 2.11876 4.5057 0
M  V30 4727 C 466.119 4.32763 5.74551 0
M  V30 4728 C 468.145 3.21405 4.9644 0
M  V30 4729 C 467.507 4.30519 5.57523 0
M  V30 4730 H 463.606 0.0559107 0.779999 0
M  V30 4731 H 466.19 0.741232 1.80038 0
M  V30 4732 H 464.361 -0.788533 3.80311 0
M  V30 4733 H 466.093 -0.634538 3.99695 0
M  V30 4734 H 462.848 1.30681 4.55214 0
M  V30 4735 H 463.272 3.66788 5.69031 0
M  V30 4736 H 467.914 1.28801 4.02704 0
M  V30 4737 H 465.632 5.166 6.2141 0
M  V30 4738 H 469.218 3.22509 4.8423 0
M  V30 4739 H 468.098 5.13873 5.92371 0
M  V30 4740 N 465.601 -1.54893 0.290851 0
M  V30 4741 C 466.85 -1.99111 -0.322113 0
M  V30 4742 C 467.163 -1.18283 -1.55784 0
M  V30 4743 O 468.369 -1.5272 -2.24475 0
M  V30 4744 C 466.825 -3.54442 -0.624438 0
M  V30 4745 C 466.433 -4.44066 0.592373 0
M  V30 4746 C 468.177 -4.07211 -1.19916 0
M  V30 4747 C 466.084 -5.90812 0.263762 0
M  V30 4748 H 465.014 -0.743712 -0.124133 0
M  V30 4749 H 467.665 -1.79132 0.39797 0
M  V30 4750 H 466.047 -3.70281 -1.40384 0
M  V30 4751 H 467.221 -4.39999 1.36886 0
M  V30 4752 H 465.536 -4.02015 1.08502 0
M  V30 4753 H 468.133 -5.14407 -1.45909 0
M  V30 4754 H 468.476 -3.57196 -2.13815 0
M  V30 4755 H 469.009 -3.94873 -0.481687 0
M  V30 4756 H 465.748 -6.44955 1.17105 0
M  V30 4757 H 465.268 -5.97911 -0.475655 0
M  V30 4758 H 466.947 -6.46852 -0.138354 0
M  V30 4759 N 467.08 -0.0183926 -1.57589 0
M  V30 4760 C 468.028 0.985111 -2.10709 0
M  V30 4761 C 469.022 1.34397 -1.0312 0
M  V30 4762 O 470.228 1.32746 -1.21567 0
M  V30 4763 H 466.603 0.335418 -0.673052 0
M  V30 4764 H 468.574 0.511689 -2.9398 0
M  V30 4765 C 467.323 2.26202 -2.64061 0
M  V30 4766 H 466.646 1.9946 -3.4649 0
M  V30 4767 H 468.086 2.94652 -3.04887 0
M  V30 4768 C 466.545 2.98444 -1.5631 0
M  V30 4769 O 467.075 3.90142 -0.956674 0
M  V30 4770 N 465.281 2.6059 -1.28612 0
M  V30 4771 H 464.828 1.86101 -1.78112 0
M  V30 4772 H 464.786 3.09238 -0.567406 0
M  V30 4773 N 468.558 1.5553 0.254621 0
M  V30 4774 C 469.835 1.6774 1.00611 0
M  V30 4775 C 470.215 0.555993 2.03647 0
M  V30 4776 O 469.563 -0.441583 2.24193 0
M  V30 4777 C 469.773 3.07725 1.6464 0
M  V30 4778 C 471.121 3.66074 2.15116 0
M  V30 4779 O 472.145 3.10476 1.74595 0
M  V30 4780 O 471.004 4.63526 2.89493 0
M  V30 4781 H 468.098 0.681958 0.467828 0
M  V30 4782 H 470.644 1.67863 0.24902 0
M  V30 4783 H 469.416 3.80792 0.900734 0
M  V30 4784 H 469.039 3.1158 2.46989 0
M  V30 4785 N 470.036 -0.519951 1.48776 0
M  V30 4786 C 471.261 -1.30447 1.6124 0
M  V30 4787 C 471.686 -1.86055 0.276591 0
M  V30 4788 O 471.044 -1.64915 -0.753183 0
M  V30 4789 C 471.092 -2.42406 2.66967 0
M  V30 4790 O 470.196 -3.45728 2.24824 0
M  V30 4791 H 469.537 -0.385924 0.540332 0
M  V30 4792 H 472.067 -0.624572 1.94834 0
M  V30 4793 H 472.077 -2.88447 2.88552 0
M  V30 4794 H 470.752 -2.01294 3.63941 0
M  V30 4795 H 469.329 -3.05737 2.13494 0
M  V30 4796 N 471.514 -1.37532 -0.769588 0
M  V30 4797 C 472.461 -1.3347 -1.88293 0
M  V30 4798 C 473.431 -0.199891 -1.64893 0
M  V30 4799 O 474.616 -0.389594 -1.8678 0
M  V30 4800 C 471.756 -1.14968 -3.25387 0
M  V30 4801 C 470.869 -2.37698 -3.60727 0
M  V30 4802 C 470.004 -2.12051 -4.8704 0
M  V30 4803 C 469.043 -3.30636 -5.15117 0
M  V30 4804 N 468.18 -3.04527 -6.3262 0
M  V30 4805 H 473.02 -2.28658 -1.911 0
M  V30 4806 H 470.557 -1.13622 -0.934257 0
M  V30 4807 H 472.515 -1.02261 -4.04473 0
M  V30 4808 H 471.145 -0.234263 -3.21949 0
M  V30 4809 H 470.197 -2.61137 -2.76608 0
M  V30 4810 H 471.509 -3.26131 -3.77413 0
M  V30 4811 H 470.663 -1.96388 -5.74035 0
M  V30 4812 H 469.402 -1.20959 -4.72462 0
M  V30 4813 H 468.407 -3.46836 -4.26597 0
M  V30 4814 H 469.632 -4.22582 -5.31603 0
M  V30 4815 H 467.578 -2.16067 -6.19396 0
M  V30 4816 H 467.495 -3.86503 -6.49732 0
M  V30 4817 H 468.763 -2.92485 -7.22546 0
M  V30 4818 N 472.992 0.995999 -1.22138 0
M  V30 4819 C 473.955 2.06711 -0.990109 0
M  V30 4820 C 474.955 1.60744 0.0422978 0
M  V30 4821 O 476.145 1.73095 -0.195895 0
M  V30 4822 C 473.277 3.37288 -0.49491 0
M  V30 4823 H 474.47 2.28661 -1.94047 0
M  V30 4824 H 472.023 1.16711 -1.03963 0
M  V30 4825 H 472.758 3.21022 0.459948 0
M  V30 4826 H 472.543 3.71986 -1.23971 0
M  V30 4827 H 474.033 4.16103 -0.353253 0
M  V30 4828 N 474.47 1.03057 1.19235 0
M  V30 4829 C 475.698 0.747697 1.92917 0
M  V30 4830 C 476.113 -0.69372 1.75593 0
M  V30 4831 O 475.47 -1.47191 1.07894 0
M  V30 4832 C 475.521 1.09159 3.44625 0
M  V30 4833 O 475.242 2.47641 3.61394 0
M  V30 4834 C 476.743 0.831763 4.35427 0
M  V30 4835 H 473.963 0.273453 0.612751 0
M  V30 4836 H 476.507 1.37552 1.51327 0
M  V30 4837 H 474.662 0.508919 3.84043 0
M  V30 4838 H 475.076 2.60499 4.55237 0
M  V30 4839 H 476.55 1.12233 5.4047 0
M  V30 4840 H 477.027 -0.233769 4.38577 0
M  V30 4841 H 477.633 1.39725 4.01693 0
M  V30 4842 N 475.948 -1.35272 0.808662 0
M  V30 4843 C 476.896 -2.31663 0.208606 0
M  V30 4844 C 477.89 -1.56731 -0.642778 0
M  V30 4845 O 479.096 -1.71843 -0.53571 0
M  V30 4846 H 475.471 -0.750421 0.0486993 0
M  V30 4847 H 477.442 -2.79814 1.03666 0
M  V30 4848 C 476.191 -3.42008 -0.626573 0
M  V30 4849 H 475.514 -3.99795 0.0192103 0
M  V30 4850 H 476.954 -4.11727 -1.01278 0
M  V30 4851 C 475.413 -2.85226 -1.79298 0
M  V30 4852 O 475.943 -2.78945 -2.89055 0
M  V30 4853 N 474.149 -2.42245 -1.60516 0
M  V30 4854 H 473.696 -2.47554 -0.712375 0
M  V30 4855 H 473.654 -2.04603 -2.38715 0
M  V30 4856 N 477.426 -0.562348 -1.47226 0
M  V30 4857 C 478.672 -0.0402761 -2.0276 0
M  V30 4858 C 479.005 1.30823 -1.43523 0
M  V30 4859 O 478.28 1.85249 -0.592705 0
M  V30 4860 C 478.563 0.047311 -3.60069 0
M  V30 4861 C 478.416 -1.32865 -4.29729 0
M  V30 4862 C 479.735 0.758182 -4.3352 0
M  V30 4863 H 476.854 -0.0161105 -0.736824 0
M  V30 4864 H 479.496 -0.725628 -1.75598 0
M  V30 4865 H 477.646 0.630986 -3.83342 0
M  V30 4866 H 479.318 -1.95593 -4.17781 0
M  V30 4867 H 477.561 -1.90195 -3.89882 0
M  V30 4868 H 478.232 -1.22004 -5.38349 0
M  V30 4869 H 480.708 0.262546 -4.15271 0
M  V30 4870 H 479.584 0.78844 -5.43208 0
M  V30 4871 H 479.845 1.81537 -4.03109 0
M  V30 4872 N 478.904 1.54736 -0.299062 0
M  V30 4873 C 480.152 1.99706 0.31017 0
M  V30 4874 C 480.473 1.18896 1.54559 0
M  V30 4875 O 479.743 0.284445 1.93824 0
M  V30 4876 H 478.323 0.737686 0.117596 0
M  V30 4877 H 480.985 1.9054 -0.409943 0
M  V30 4878 H 480.081 3.06596 0.58355 0
M  V30 4879 N 480.382 0.0267497 1.57577 0
M  V30 4880 C 481.607 -0.666227 1.96408 0
M  V30 4881 C 482.032 -1.65004 0.903071 0
M  V30 4882 O 481.39 -1.80787 -0.136263 0
M  V30 4883 C 481.438 -1.35101 3.34335 0
M  V30 4884 O 480.542 -2.46623 3.30531 0
M  V30 4885 H 479.883 -0.175206 0.640468 0
M  V30 4886 H 482.413 0.0878977 2.04411 0
M  V30 4887 H 482.423 -1.70834 3.70513 0
M  V30 4888 H 481.098 -0.629844 4.11103 0
M  V30 4889 H 479.675 -2.13019 3.06068 0
M  V30 4890 N 481.861 -1.55662 -0.24637 0
M  V30 4891 C 483.089 -1.81575 -0.991876 0
M  V30 4892 C 483.504 -0.602545 -1.78927 0
M  V30 4893 O 482.861 0.428795 -1.77391 0
M  V30 4894 C 482.912 -3.05711 -1.92933 0
M  V30 4895 O 482.633 -4.22348 -1.1642 0
M  V30 4896 C 484.134 -3.44428 -2.79078 0
M  V30 4897 H 481.354 -0.604209 -0.291844 0
M  V30 4898 H 483.898 -2.02722 -0.269095 0
M  V30 4899 H 482.053 -2.86612 -2.60638 0
M  V30 4900 H 482.467 -4.92706 -1.79835 0
M  V30 4901 H 483.941 -4.34388 -3.40603 0
M  V30 4902 H 484.418 -2.65037 -3.50217 0
M  V30 4903 H 485.024 -3.65879 -2.16824 0
M  V30 4904 N 483.339 0.512053 -1.4905 0
M  V30 4905 C 484.249 1.64139 -1.67617 0
M  V30 4906 C 485.265 1.64786 -0.558701 0
M  V30 4907 O 486.441 1.8341 -0.832034 0
M  V30 4908 C 483.506 3.00548 -1.72835 0
M  V30 4909 C 482.567 3.10615 -2.96339 0
M  V30 4910 C 481.8 4.40517 -3.01298 0
M  V30 4911 O 482.023 5.28671 -2.14157 0
M  V30 4912 O 480.957 4.55325 -3.93653 0
M  V30 4913 H 484.783 1.51407 -2.63267 0
M  V30 4914 H 482.368 0.687131 -1.32661 0
M  V30 4915 H 484.25 3.81641 -1.78683 0
M  V30 4916 H 482.925 3.13566 -0.803616 0
M  V30 4917 H 481.832 2.2875 -2.96014 0
M  V30 4918 H 483.165 3.0252 -3.88256 0
M  V30 4919 N 484.817 1.37938 0.762283 0
M  V30 4920 C 485.78 1.34279 1.85747 0
M  V30 4921 C 486.78 0.244969 1.58923 0
M  V30 4922 O 487.97 0.501365 1.66829 0
M  V30 4923 C 485.102 1.08833 3.23061 0
M  V30 4924 H 486.295 2.31705 1.90401 0
M  V30 4925 H 483.848 1.23105 0.963057 0
M  V30 4926 H 484.583 0.119767 3.24079 0
M  V30 4927 H 484.368 1.88306 3.43923 0
M  V30 4928 H 485.858 1.08946 4.03138 0
M  V30 4929 N 486.295 -0.989507 1.22664 0
M  V30 4930 C 487.258 -2.06183 1.00106 0
M  V30 4931 C 488.258 -1.60765 -0.0337726 0
M  V30 4932 O 489.448 -1.72989 0.205072 0
M  V30 4933 C 486.58 -3.37021 0.51279 0
M  V30 4934 H 487.773 -2.27629 1.95256 0
M  V30 4935 H 485.326 -1.16158 1.0458 0
M  V30 4936 H 486.061 -3.21261 -0.442917 0
M  V30 4937 H 485.846 -3.71323 1.25942 0
M  V30 4938 H 487.336 -4.1591 0.375315 0
M  V30 4939 N 487.773 -1.03688 -1.18687 0
M  V30 4940 C 488.703 -0.645407 -2.24403 0
M  V30 4941 C 489.684 0.349511 -1.66471 0
M  V30 4942 O 490.869 0.230453 -1.92828 0
M  V30 4943 C 487.999 -0.00365337 -3.473 0
M  V30 4944 C 486.953 -0.921705 -4.17958 0
M  V30 4945 C 486.279 -0.144629 -5.34504 0
M  V30 4946 C 487.579 -2.23909 -4.71871 0
M  V30 4947 H 489.273 -1.52917 -2.57404 0
M  V30 4948 H 486.819 -0.736711 -1.23728 0
M  V30 4949 H 488.772 0.281908 -4.20456 0
M  V30 4950 H 487.496 0.914963 -3.13522 0
M  V30 4951 H 486.155 -1.19159 -3.46694 0
M  V30 4952 H 485.803 0.776274 -4.96974 0
M  V30 4953 H 485.503 -0.756206 -5.82714 0
M  V30 4954 H 487.027 0.134004 -6.10453 0
M  V30 4955 H 488.441 -2.0145 -5.36741 0
M  V30 4956 H 486.838 -2.8033 -5.30599 0
M  V30 4957 H 487.908 -2.88822 -3.895 0
M  V30 4958 N 489.251 1.34841 -0.815825 0
M  V30 4959 C 490.199 2.31549 -0.220888 0
M  V30 4960 C 491.193 1.5707 0.634457 0
M  V30 4961 O 492.399 1.72125 0.526589 0
M  V30 4962 H 488.774 0.750153 -0.0526782 0
M  V30 4963 H 490.745 2.7926 -1.05149 0
M  V30 4964 C 489.494 3.42335 0.608427 0
M  V30 4965 H 488.817 3.9978 -0.0404121 0
M  V30 4966 H 490.257 4.12258 0.990931 0
M  V30 4967 C 488.716 2.86173 1.77782 0
M  V30 4968 O 489.246 2.80474 2.87571 0
M  V30 4969 N 487.452 2.43093 1.59229 0
M  V30 4970 H 486.999 2.47928 0.699237 0
M  V30 4971 H 486.957 2.05866 2.37627 0
M  V30 4972 N 490.729 0.570148 1.46925 0
M  V30 4973 C 491.977 0.0508523 2.02036 0
M  V30 4974 C 492.298 -1.30885 1.44548 0
M  V30 4975 O 491.568 -1.85647 0.625453 0
M  V30 4976 H 490.148 0.0158088 0.746833 0
M  V30 4977 H 492.81 0.743086 1.80178 0
M  V30 4978 H 491.906 -0.027575 3.12088 0
M  V30 4979 N 492.207 -1.54576 0.307264 0
M  V30 4980 C 493.137 -2.26708 -0.55907 0
M  V30 4981 C 494.118 -1.26893 -1.1328 0
M  V30 4982 O 495.303 -1.55677 -1.16097 0
M  V30 4983 C 492.433 -3.01259 -1.72801 0
M  V30 4984 C 491.387 -4.08275 -1.28435 0
M  V30 4985 C 490.713 -4.70575 -2.53895 0
M  V30 4986 C 492.013 -5.2068 -0.411038 0
M  V30 4987 H 493.707 -2.9937 0.042576 0
M  V30 4988 H 491.253 -1.43983 0.0219173 0
M  V30 4989 H 493.206 -3.50444 -2.34023 0
M  V30 4990 H 491.93 -2.26187 -2.356 0
M  V30 4991 H 490.589 -3.59949 -0.695161 0
M  V30 4992 H 490.237 -3.92136 -3.15021 0
M  V30 4993 H 489.937 -5.42854 -2.24908 0
M  V30 4994 H 491.461 -5.22527 -3.15908 0
M  V30 4995 H 492.875 -5.65721 -0.929097 0
M  V30 4996 H 491.272 -5.99716 -0.214664 0
M  V30 4997 H 492.342 -4.81629 0.562287 0
M  V30 4998 N 493.685 -0.035106 -1.57561 0
M  V30 4999 C 494.635 0.954034 -2.0708 0
M  V30 5000 C 495.619 1.2818 -0.972558 0
M  V30 5001 O 496.811 1.26691 -1.23606 0
M  V30 5002 C 493.94 2.23442 -2.60631 0
M  V30 5003 C 493.026 1.93475 -3.77396 0
M  V30 5004 N 493.417 1.33802 -4.87781 0
M  V30 5005 C 491.715 2.23434 -3.85996 0
M  V30 5006 C 492.416 1.21103 -5.68954 0
M  V30 5007 N 491.392 1.70855 -5.16052 0
M  V30 5008 H 495.194 0.487731 -2.89825 0
M  V30 5009 H 492.708 0.169759 -1.6151 0
M  V30 5010 H 494.705 2.95183 -2.94402 0
M  V30 5011 H 493.365 2.70693 -1.79319 0
M  V30 5012 H 494.376 1.01227 -5.07911 0
M  V30 5013 H 491.053 2.73317 -3.15601 0
M  V30 5014 H 492.443 0.749105 -6.67711 0
M  V30 5015 N 495.163 1.55791 0.238111 0
M  V30 5016 C 496.409 1.78297 0.966337 0
M  V30 5017 C 496.742 0.601903 1.84637 0
M  V30 5018 O 496.017 -0.399499 1.90353 0
M  V30 5019 C 496.3 3.10758 1.81939 0
M  V30 5020 C 496.153 4.39283 0.966958 0
M  V30 5021 C 497.472 3.39519 2.80027 0
M  V30 5022 H 494.591 0.648654 0.349882 0
M  V30 5023 H 497.233 1.88525 0.236253 0
M  V30 5024 H 495.383 3.02168 2.44185 0
M  V30 5025 H 497.055 4.59873 0.362514 0
M  V30 5026 H 495.298 4.32948 0.271669 0
M  V30 5027 H 495.969 5.28368 1.59784 0
M  V30 5028 H 498.445 3.48128 2.27917 0
M  V30 5029 H 497.321 4.33402 3.36829 0
M  V30 5030 H 497.582 2.60864 3.56934 0
M  V30 5031 N 496.642 -0.504142 1.49319 0
M  V30 5032 C 497.919 -1.26548 1.49147 0
M  V30 5033 C 498.299 -2.09977 0.21744 0
M  V30 5034 O 497.647 -2.14028 -0.800269 0
M  V30 5035 C 497.857 -2.12489 2.76857 0
M  V30 5036 C 499.205 -2.7178 3.26222 0
M  V30 5037 O 500.229 -2.22758 2.77952 0
M  V30 5038 O 499.088 -3.61015 4.10281 0
M  V30 5039 H 496.182 -0.572495 0.596806 0
M  V30 5040 H 498.728 -0.51867 1.61579 0
M  V30 5041 H 497.5 -1.50796 3.61077 0
M  V30 5042 H 497.123 -2.94368 2.6727 0
M  V30 5043 N 498.12 -1.38341 -0.754957 0
M  V30 5044 C 499.368 -1.34208 -1.51105 0
M  V30 5045 C 499.689 0.0677634 -1.94882 0
M  V30 5046 O 498.959 1.01517 -1.67544 0
M  V30 5047 H 497.539 -0.493819 -0.560493 0
M  V30 5048 H 500.201 -1.73005 -0.897507 0
M  V30 5049 H 499.297 -1.99203 -2.4026 0
M  V30 5050 N 499.598 0.982988 -1.23187 0
M  V30 5051 C 500.826 1.75921 -1.08901 0
M  V30 5052 C 501.241 1.85341 0.359719 0
M  V30 5053 O 500.598 1.33072 1.24892 0
M  V30 5054 C 500.649 3.18742 -1.70545 0
M  V30 5055 O 500.37 3.09814 -3.09753 0
M  V30 5056 C 501.871 4.1277 -1.61667 0
M  V30 5057 H 499.091 0.552166 -0.381252 0
M  V30 5058 H 501.635 1.23516 -1.62985 0
M  V30 5059 H 499.79 3.68182 -1.20501 0
M  V30 5060 H 500.204 3.99703 -3.39614 0
M  V30 5061 H 501.678 5.10697 -2.09506 0
M  V30 5062 H 502.155 4.3542 -0.575009 0
M  V30 5063 H 502.761 3.69232 -2.11064 0
M  V30 5064 N 501.076 1.04316 1.18135 0
M  V30 5065 C 502.006 0.657299 2.24058 0
M  V30 5066 C 502.987 -0.340678 1.66654 0
M  V30 5067 O 504.172 -0.220223 1.92947 0
M  V30 5068 C 501.302 0.0220715 3.47293 0
M  V30 5069 C 500.256 0.943857 4.17463 0
M  V30 5070 C 499.582 0.172973 5.3442 0
M  V30 5071 C 500.882 2.26409 4.70677 0
M  V30 5072 H 502.576 1.5428 2.56589 0
M  V30 5073 H 500.122 0.743263 1.23335 0
M  V30 5074 H 502.075 -0.259607 4.206 0
M  V30 5075 H 500.799 -0.898323 3.14003 0
M  V30 5076 H 499.458 1.20996 3.46057 0
M  V30 5077 H 499.106 -0.749907 4.97379 0
M  V30 5078 H 498.806 0.787098 5.82304 0
M  V30 5079 H 500.33 -0.101628 6.10515 0
M  V30 5080 H 501.744 2.04294 5.35665 0
M  V30 5081 H 500.141 2.8314 5.29105 0
M  V30 5082 H 501.211 2.90883 3.87962 0
M  V30 5083 N 502.554 -1.34406 0.822964 0
M  V30 5084 C 503.504 -2.26963 0.217208 0
M  V30 5085 C 504.488 -1.48536 -0.618545 0
M  V30 5086 O 505.68 -1.7056 -0.473118 0
M  V30 5087 C 502.809 -3.37655 -0.619973 0
M  V30 5088 C 501.895 -4.23495 0.226411 0
M  V30 5089 N 502.286 -4.88876 1.29744 0
M  V30 5090 C 500.584 -4.45999 0.0107554 0
M  V30 5091 C 501.285 -5.52642 1.81553 0
M  V30 5092 N 500.261 -5.31949 1.11942 0
M  V30 5093 H 504.063 -2.75017 1.03647 0
M  V30 5094 H 501.577 -1.48126 0.665777 0
M  V30 5095 H 503.574 -4.02932 -1.07011 0
M  V30 5096 H 502.234 -2.91151 -1.43739 0
M  V30 5097 H 503.245 -4.89886 1.68024 0
M  V30 5098 H 499.922 -4.10253 -0.774495 0
M  V30 5099 H 501.312 -6.14755 2.71156 0
M  V30 5100 N 504.032 -0.577932 -1.46621 0
M  V30 5101 C 504.962 0.145917 -2.33044 0
M  V30 5102 C 505.943 0.888412 -1.45056 0
M  V30 5103 O 507.128 0.864812 -1.73881 0
M  V30 5104 C 504.258 1.16322 -3.27241 0
M  V30 5105 C 503.212 0.535868 -4.24632 0
M  V30 5106 C 502.538 1.65929 -5.08303 0
M  V30 5107 C 503.838 -0.523861 -5.19666 0
M  V30 5108 H 505.532 -0.575636 -2.93814 0
M  V30 5109 H 503.078 -0.278272 -1.41286 0
M  V30 5110 H 505.031 1.67793 -3.86553 0
M  V30 5111 H 503.755 1.91498 -2.64567 0
M  V30 5112 H 502.414 0.0422759 -3.66576 0
M  V30 5113 H 502.062 2.40061 -4.42018 0
M  V30 5114 H 501.762 1.2452 -5.74255 0
M  V30 5115 H 503.286 2.17686 -5.70478 0
M  V30 5116 H 504.7 -0.0944059 -5.73222 0
M  V30 5117 H 503.097 -0.858 -5.93935 0
M  V30 5118 H 504.167 -1.41197 -4.63887 0
M  V30 5119 N 505.51 1.54411 -0.315457 0
M  V30 5120 C 506.44 2.27002 0.547039 0
M  V30 5121 C 507.421 1.27492 1.12605 0
M  V30 5122 O 508.606 1.5629 1.15269 0
M  V30 5123 C 505.736 3.02171 1.71201 0
M  V30 5124 C 504.69 4.0895 1.26268 0
M  V30 5125 C 504.016 4.71915 2.51396 0
M  V30 5126 C 505.316 5.20891 0.383419 0
M  V30 5127 H 507.01 2.99343 -0.0584517 0
M  V30 5128 H 504.556 1.4397 -0.0295527 0
M  V30 5129 H 506.509 3.51681 2.32161 0
M  V30 5130 H 505.233 2.27433 2.34397 0
M  V30 5131 H 503.892 3.60312 0.676062 0
M  V30 5132 H 503.54 3.93801 3.12937 0
M  V30 5133 H 503.24 5.44039 2.22026 0
M  V30 5134 H 504.764 5.24195 3.13133 0
M  V30 5135 H 506.178 5.66206 0.899082 0
M  V30 5136 H 504.575 5.99821 0.182857 0
M  V30 5137 H 505.645 4.81324 -0.587821 0
M  V30 5138 N 506.988 0.0434614 1.5754 0
M  V30 5139 C 507.918 -0.931651 2.14109 0
M  V30 5140 C 508.899 -1.32971 1.06079 0
M  V30 5141 O 510.084 -1.40579 1.33982 0
M  V30 5142 C 507.214 -2.20914 2.67982 0
M  V30 5143 C 506.168 -1.95139 3.80926 0
M  V30 5144 C 505.494 -3.29276 4.21285 0
M  V30 5145 C 506.794 -1.27913 5.06395 0
M  V30 5146 H 508.488 -0.460497 2.95837 0
M  V30 5147 H 506.034 -0.220058 1.42309 0
M  V30 5148 H 507.987 -2.89522 3.06194 0
M  V30 5149 H 506.711 -2.70221 1.83434 0
M  V30 5150 H 505.37 -1.28945 3.43175 0
M  V30 5151 H 505.018 -3.76369 3.33699 0
M  V30 5152 H 504.718 -3.12831 4.97404 0
M  V30 5153 H 506.242 -3.99129 4.62091 0
M  V30 5154 H 507.656 -1.86544 5.42102 0
M  V30 5155 H 506.053 -1.2182 5.87605 0
M  V30 5156 H 507.123 -0.254066 4.84234 0
M  V30 5157 N 508.466 -1.55915 -0.229846 0
M  V30 5158 C 509.714 -1.7819 -0.953565 0
M  V30 5159 C 510.035 -0.610504 -1.85197 0
M  V30 5160 O 509.305 0.372988 -1.92316 0
M  V30 5161 H 507.885 -0.657208 -0.355087 0
M  V30 5162 H 510.547 -1.9337 -0.243693 0
M  V30 5163 H 509.643 -2.70011 -1.56527 0
M  V30 5164 N 509.944 0.496216 -1.49584 0
M  V30 5165 C 511.192 1.24756 -1.58998 0
M  V30 5166 C 511.513 1.92968 -0.280775 0
M  V30 5167 O 510.783 1.82959 0.700198 0
M  V30 5168 H 509.363 0.463471 -0.585836 0
M  V30 5169 H 512.025 0.574678 -1.86235 0
M  V30 5170 H 511.121 2.00895 -2.38847 0
M  V30 5171 N 511.423 1.38739 0.74761 0
M  V30 5172 C 512.7 1.25791 1.49786 0
M  V30 5173 C 513.08 -0.138075 2.10648 0
M  V30 5174 O 512.428 -1.14815 1.9756 0
M  V30 5175 C 512.638 2.37265 2.55942 0
M  V30 5176 C 513.986 2.75978 3.22679 0
M  V30 5177 O 515.01 2.36621 2.6625 0
M  V30 5178 O 513.869 3.43867 4.24756 0
M  V30 5179 H 510.963 0.492251 0.664543 0
M  V30 5180 H 513.509 1.50582 0.782511 0
M  V30 5181 H 512.281 3.30644 2.0926 0
M  V30 5182 H 511.904 2.14071 3.35051 0
M  V30 5183 N 512.901 -0.976442 1.23707 0
M  V30 5184 C 514.149 -1.71487 1.06942 0
M  V30 5185 C 514.47 -1.9098 -0.393897 0
M  V30 5186 O 513.74 -1.48128 -1.28198 0
M  V30 5187 H 512.32 -0.635425 0.392739 0
M  V30 5188 H 514.982 -1.17515 1.55487 0
M  V30 5189 H 514.078 -2.70286 1.56051 0
M  V30 5190 N 514.379 -1.04941 -1.1758 0
M  V30 5191 C 515.326 -0.648155 -2.21512 0
M  V30 5192 C 516.296 0.348431 -1.62404 0
M  V30 5193 O 517.481 0.240419 -1.89279 0
M  V30 5194 C 514.621 -0.0264291 -3.4509 0
M  V30 5195 C 513.734 -1.07154 -4.185 0
M  V30 5196 C 512.869 -0.417403 -5.29558 0
M  V30 5197 C 511.908 -1.447 -5.94751 0
M  V30 5198 N 511.045 -0.817203 -6.97328 0
M  V30 5199 H 515.885 -1.53891 -2.55189 0
M  V30 5200 H 513.422 -0.769699 -1.25356 0
M  V30 5201 H 515.38 0.351456 -4.15717 0
M  V30 5202 H 514.01 0.827802 -3.12005 0
M  V30 5203 H 513.062 -1.56728 -3.46613 0
M  V30 5204 H 514.374 -1.8532 -4.63096 0
M  V30 5205 H 513.528 0.0142061 -6.06698 0
M  V30 5206 H 512.267 0.396265 -4.86087 0
M  V30 5207 H 511.272 -1.88865 -5.16343 0
M  V30 5208 H 512.497 -2.26252 -6.40302 0
M  V30 5209 H 510.443 -0.0239995 -6.55996 0
M  V30 5210 H 510.36 -1.53644 -7.40223 0
M  V30 5211 H 511.628 -0.410283 -7.7842 0
M  V30 5212 N 515.857 1.33968 -0.830081 0
M  V30 5213 C 517.082 2.02813 -0.433796 0
M  V30 5214 C 517.507 1.62076 0.954614 0
M  V30 5215 O 516.865 0.808955 1.62252 0
M  V30 5216 C 516.913 3.56348 -0.552115 0
M  V30 5217 O 516.017 4.10202 0.425191 0
M  V30 5218 H 515.358 0.639817 -0.177567 0
M  V30 5219 H 517.888 1.7106 -1.12248 0
M  V30 5220 H 517.898 4.05722 -0.430513 0
M  V30 5221 H 516.573 3.85344 -1.56471 0
M  V30 5222 H 515.15 3.71979 0.261878 0
M  V30 5223 N 517.335 0.585699 1.46312 0
M  V30 5224 C 518.298 -0.135673 2.28798 0
M  V30 5225 C 519.298 -0.815988 1.38558 0
M  V30 5226 O 520.488 -0.667487 1.60904 0
M  V30 5227 C 517.62 -1.20163 3.1902 0
M  V30 5228 H 518.813 0.589257 2.94054 0
M  V30 5229 H 516.366 0.343794 1.52472 0
M  V30 5230 H 517.101 -1.95804 2.58517 0
M  V30 5231 H 516.886 -0.718282 3.85465 0
M  V30 5232 H 518.376 -1.70749 3.81096 0
M  V30 5233 N 518.813 -1.54241 0.323641 0
M  V30 5234 C 520.09 -1.92741 -0.333181 0
M  V30 5235 C 520.47 -1.25326 -1.69872 0
M  V30 5236 O 519.818 -0.396991 -2.25025 0
M  V30 5237 C 520.028 -3.46399 -0.425322 0
M  V30 5238 C 521.376 -4.19029 -0.68557 0
M  V30 5239 O 522.4 -3.52555 -0.50824 0
M  V30 5240 O 521.259 -5.36751 -1.02767 0
M  V30 5241 H 518.353 -0.804811 -0.190286 0
M  V30 5242 H 520.899 -1.65542 0.373361 0
M  V30 5243 H 519.671 -3.87643 0.533737 0
M  V30 5244 H 519.294 -3.79704 -1.17944 0
M  V30 5245 N 520.291 -0.0518155 -1.57515 0
M  V30 5246 C 521.538 0.621823 -1.92716 0
M  V30 5247 C 521.866 1.70813 -0.930229 0
M  V30 5248 O 521.121 1.95616 0.0573708 0
M  V30 5249 C 521.42 1.25607 -3.34601 0
M  V30 5250 C 521.086 0.297901 -4.49915 0
M  V30 5251 C 519.748 0.034243 -4.81188 0
M  V30 5252 C 522.1 -0.358738 -5.19964 0
M  V30 5253 C 519.428 -0.893479 -5.79857 0
M  V30 5254 C 521.78 -1.27466 -6.19625 0
M  V30 5255 C 520.444 -1.54698 -6.49326 0
M  V30 5256 H 519.714 0.227541 -0.705199 0
M  V30 5257 H 522.361 -0.118432 -1.91133 0
M  V30 5258 H 520.666 2.07161 -3.32553 0
M  V30 5259 H 522.363 1.78424 -3.59118 0
M  V30 5260 H 518.953 0.513581 -4.25512 0
M  V30 5261 H 523.137 -0.168133 -4.96015 0
M  V30 5262 H 518.393 -1.11193 -6.01204 0
M  V30 5263 H 522.567 -1.78953 -6.73015 0
M  V30 5264 H 520.194 -2.26748 -7.25596 0
M  V30 5265 N 521.769 1.56035 0.221574 0
M  V30 5266 C 522.994 1.83476 0.967026 0
M  V30 5267 C 523.419 0.632139 1.7716 0
M  V30 5268 O 522.777 -0.419082 1.7639 0
M  V30 5269 C 522.825 3.08907 1.86034 0
M  V30 5270 O 521.929 2.876 2.95567 0
M  V30 5271 H 521.27 0.604913 0.273817 0
M  V30 5272 H 523.8 2.03247 0.234893 0
M  V30 5273 H 523.81 3.3901 2.27016 0
M  V30 5274 H 522.485 3.96068 1.26898 0
M  V30 5275 H 521.062 2.6873 2.58532 0
M  V30 5276 N 523.247 -0.488276 1.49845 0
M  V30 5277 C 524.658 -1.06955 1.53028 0
M  V30 5278 C 525.009 -1.9351 0.323797 0
M  V30 5279 O 524.134 -2.08891 -0.565116 0
M  V30 5280 C 524.729 -1.94643 2.77307 0
M  V30 5281 C 523.288 -2.4791 2.83227 0
M  V30 5282 C 522.435 -1.25833 2.47106 0
M  V30 5283 H 525.386 -0.271626 1.56358 0
M  V30 5284 H 525.407 -2.79496 2.5819 0
M  V30 5285 H 524.919 -1.31621 3.65099 0
M  V30 5286 H 523.02 -3.14535 1.99745 0
M  V30 5287 H 523.133 -2.84193 3.85709 0
M  V30 5288 H 521.497 -1.58764 1.99163 0
M  V30 5289 H 522.28 -0.644993 3.37186 0
M  V30 5290 N 524.725 -1.39134 -0.740242 0
M  V30 5291 C 525.655 -1.40165 -1.86751 0
M  V30 5292 C 526.636 -0.265708 -1.68012 0
M  V30 5293 O 527.821 -0.47076 -1.88408 0
M  V30 5294 C 524.951 -1.2392 -3.2444 0
M  V30 5295 C 523.905 -2.34858 -3.57807 0
M  V30 5296 C 523.231 -2.03707 -4.94376 0
M  V30 5297 C 524.531 -3.77159 -3.61315 0
M  V30 5298 H 526.225 -2.345 -1.86145 0
M  V30 5299 H 523.771 -1.12875 -0.89416 0
M  V30 5300 H 525.724 -1.23263 -4.02969 0
M  V30 5301 H 524.448 -0.26051 -3.25559 0
M  V30 5302 H 523.107 -2.34723 -2.81604 0
M  V30 5303 H 522.755 -1.04289 -4.9207 0
M  V30 5304 H 522.455 -2.78016 -5.17669 0
M  V30 5305 H 523.979 -2.04691 -5.75268 0
M  V30 5306 H 525.393 -3.79252 -4.29931 0
M  V30 5307 H 523.79 -4.50784 -3.96124 0
M  V30 5308 H 524.86 -4.08513 -2.61238 0
M  V30 5309 N 526.204 0.969867 -1.24223 0
M  V30 5310 C 527.167 2.04564 -1.03373 0
M  V30 5311 C 528.167 1.60798 0.00819206 0
M  V30 5312 O 529.357 1.72641 -0.232567 0
M  V30 5313 C 526.489 3.36163 -0.566343 0
M  V30 5314 H 527.682 2.24494 -1.98853 0
M  V30 5315 H 525.235 1.1448 -1.06415 0
M  V30 5316 H 525.97 3.21925 0.391751 0
M  V30 5317 H 525.755 3.69273 -1.31834 0
M  V30 5318 H 527.245 4.1526 -0.441435 0
M  V30 5319 N 527.682 1.05563 1.17022 0
M  V30 5320 C 529.098 0.777684 1.39371 0
M  V30 5321 C 529.298 -0.626269 1.91521 0
M  V30 5322 O 528.354 -1.38806 2.10924 0
M  V30 5323 C 529.667 1.83642 2.3811 0
M  V30 5324 C 531.215 1.85907 2.51809 0
M  V30 5325 C 531.69 2.90813 3.53824 0
M  V30 5326 N 533.181 2.898 3.61345 0
M  V30 5327 C 533.916 3.6762 4.40049 0
M  V30 5328 N 533.412 4.55237 5.22237 0
M  V30 5329 N 535.205 3.56044 4.34959 0
M  V30 5330 H 527.356 1.9614 0.815047 0
M  V30 5331 H 529.619 0.849527 0.420722 0
M  V30 5332 H 529.325 2.84425 2.06871 0
M  V30 5333 H 529.199 1.6812 3.37662 0
M  V30 5334 H 531.586 0.857865 2.82356 0
M  V30 5335 H 531.667 2.05506 1.52318 0
M  V30 5336 H 531.311 3.91122 3.24015 0
M  V30 5337 H 531.241 2.68465 4.53028 0
M  V30 5338 H 533.732 2.26274 3.02669 0
M  V30 5339 H 534.045 5.11291 5.79484 0
M  V30 5340 H 532.39 4.59296 5.21605 0
M  V30 5341 H 535.581 2.86986 3.69806 0
M  V30 5342 H 535.754 4.16938 4.96051 0
M  V30 5343 N 529.16 -1.33526 0.837174 0
M  V30 5344 C 530.39 -2.01754 0.444848 0
M  V30 5345 C 530.798 -1.63149 -0.958072 0
M  V30 5346 O 530.141 -0.839827 -1.63379 0
M  V30 5347 C 530.203 -3.56228 0.483917 0
M  V30 5348 C 529.867 -4.18205 1.84265 0
M  V30 5349 C 530.864 -4.37699 2.80563 0
M  V30 5350 C 528.549 -4.54667 2.13503 0
M  V30 5351 C 530.543 -4.928 4.04261 0
M  V30 5352 C 528.23 -5.09475 3.37458 0
M  V30 5353 C 529.228 -5.28488 4.32654 0
M  V30 5354 O 528.916 -5.82132 5.54417 0
M  V30 5355 H 528.648 -0.652928 0.175104 0
M  V30 5356 H 531.202 -1.71469 1.13082 0
M  V30 5357 H 529.432 -3.85833 -0.258826 0
M  V30 5358 H 531.121 -4.05752 0.109653 0
M  V30 5359 H 531.887 -4.0988 2.59274 0
M  V30 5360 H 527.766 -4.39164 1.40201 0
M  V30 5361 H 531.31 -5.07555 4.78574 0
M  V30 5362 H 527.207 -5.36725 3.58604 0
M  V30 5363 H 527.975 -6.00548 5.56133 0
M  V30 5364 N 530.638 -0.59345 -1.46 0
M  V30 5365 C 531.568 0.121192 -2.33185 0
M  V30 5366 C 532.549 0.872977 -1.4599 0
M  V30 5367 O 533.734 0.846321 -1.74789 0
M  V30 5368 C 530.864 1.12844 -3.28456 0
M  V30 5369 C 529.818 0.4908 -4.25177 0
M  V30 5370 C 529.144 1.60529 -5.10034 0
M  V30 5371 C 530.444 -0.578949 -5.19081 0
M  V30 5372 H 532.138 -0.606767 -2.93187 0
M  V30 5373 H 529.684 -0.293242 -1.40983 0
M  V30 5374 H 531.637 1.63684 -3.88311 0
M  V30 5375 H 530.361 1.88681 -2.66584 0
M  V30 5376 H 529.02 0.00339328 -3.666 0
M  V30 5377 H 528.668 2.35359 -4.44539 0
M  V30 5378 H 528.368 1.18422 -5.75543 0
M  V30 5379 H 529.892 2.11623 -5.72755 0
M  V30 5380 H 531.306 -0.155199 -5.7309 0
M  V30 5381 H 529.703 -0.920947 -5.92991 0
M  V30 5382 H 530.773 -1.46109 -4.62364 0
M  V30 5383 N 532.116 1.54067 -0.331816 0
M  V30 5384 C 533.064 2.26105 0.54582 0
M  V30 5385 C 534.058 1.27816 1.11173 0
M  V30 5386 O 535.264 1.45565 1.05882 0
M  V30 5387 H 531.639 0.726363 0.194683 0
M  V30 5388 H 533.61 2.98282 -0.083931 0
M  V30 5389 C 532.359 3.03814 1.69092 0
M  V30 5390 H 531.682 3.79269 1.26473 0
M  V30 5391 H 533.122 3.57453 2.28043 0
M  V30 5392 C 531.581 2.12606 2.61343 0
M  V30 5393 O 532.111 1.71437 3.6328 0
M  V30 5394 N 530.317 1.77925 2.29763 0
M  V30 5395 H 529.864 2.11602 1.46909 0
M  V30 5396 H 529.822 1.1718 2.91747 0
M  V30 5397 N 533.594 0.0601682 1.57485 0
M  V30 5398 C 534.842 -0.610386 1.92662 0
M  V30 5399 C 535.163 -1.70849 0.939981 0
M  V30 5400 O 534.433 -1.95895 -0.0137455 0
M  V30 5401 H 533.013 -0.228457 0.711208 0
M  V30 5402 H 535.675 0.115288 1.94559 0
M  V30 5403 H 534.771 -1.0432 2.94149 0
M  V30 5404 N 535.072 -1.5615 -0.213296 0
M  V30 5405 C 536.349 -1.70349 -0.961281 0
M  V30 5406 C 536.729 -0.609791 -2.02101 0
M  V30 5407 O 536.077 0.381987 -2.25285 0
M  V30 5408 C 536.287 -3.11982 -1.56424 0
M  V30 5409 C 537.635 -3.71649 -2.05334 0
M  V30 5410 O 538.659 -3.14995 -1.66302 0
M  V30 5411 O 537.518 -4.71038 -2.77102 0
M  V30 5412 H 534.612 -0.694121 -0.449582 0
M  V30 5413 H 537.158 -1.68464 -0.204426 0
M  V30 5414 H 535.93 -3.83046 -0.799457 0
M  V30 5415 H 535.553 -3.18019 -2.38641 0
M  V30 5416 N 536.55 0.480323 -1.50102 0
M  V30 5417 C 537.498 1.60024 -1.68805 0
M  V30 5418 C 538.492 1.60089 -0.553888 0
M  V30 5419 O 539.698 1.64349 -0.734127 0
M  V30 5420 H 536.073 0.530841 -0.532646 0
M  V30 5421 H 538.044 1.41408 -2.62767 0
M  V30 5422 C 536.793 2.98029 -1.79092 0
M  V30 5423 H 536.116 2.98694 -2.65748 0
M  V30 5424 H 537.556 3.75871 -1.96206 0
M  V30 5425 C 536.015 3.32538 -0.540388 0
M  V30 5426 O 536.545 4.00386 0.324637 0
M  V30 5427 N 534.751 2.87873 -0.397154 0
M  V30 5428 H 534.298 2.32834 -1.1021 0
M  V30 5429 H 534.256 3.11328 0.438425 0
M  V30 5430 N 538.028 1.39524 0.732853 0
M  V30 5431 C 539.274 1.37068 1.49467 0
M  V30 5432 C 539.607 -0.0327166 1.94172 0
M  V30 5433 O 538.882 -0.998071 1.66939 0
M  V30 5434 C 539.165 2.34494 2.73285 0
M  V30 5435 C 539.018 3.83784 2.34585 0
M  V30 5436 C 540.337 2.29717 3.75391 0
M  V30 5437 H 537.456 0.499206 0.542183 0
M  V30 5438 H 540.098 1.70532 0.837783 0
M  V30 5439 H 538.248 2.06087 3.29333 0
M  V30 5440 H 539.92 4.22949 1.84151 0
M  V30 5441 H 538.163 4.00455 1.66787 0
M  V30 5442 H 538.834 4.47444 3.23262 0
M  V30 5443 H 541.31 2.54839 3.28932 0
M  V30 5444 H 540.186 2.99962 4.59689 0
M  V30 5445 H 540.447 1.30291 4.22465 0
M  V30 5446 N 539.506 -0.963266 1.24736 0
M  V30 5447 C 540.922 -1.23273 1.01371 0
M  V30 5448 C 541.122 -1.99618 -0.274776 0
M  V30 5449 O 540.178 -2.32293 -0.989769 0
M  V30 5450 C 541.491 -2.01554 2.23152 0
M  V30 5451 C 543.039 -2.14629 2.27823 0
M  V30 5452 C 543.514 -2.96307 3.49237 0
M  V30 5453 N 545.005 -3.03887 3.49581 0
M  V30 5454 C 545.74 -3.67456 4.40186 0
M  V30 5455 N 545.236 -4.32706 5.41052 0
M  V30 5456 N 547.029 -3.64511 4.27888 0
M  V30 5457 H 539.18 -0.452294 2.07528 0
M  V30 5458 H 541.443 -0.262521 0.910926 0
M  V30 5459 H 541.149 -1.52847 3.1675 0
M  V30 5460 H 541.023 -3.02278 2.25628 0
M  V30 5461 H 543.41 -2.62537 1.34753 0
M  V30 5462 H 543.491 -1.13238 2.2937 0
M  V30 5463 H 543.135 -2.49091 4.42624 0
M  V30 5464 H 543.065 -3.97905 3.44933 0
M  V30 5465 H 545.556 -2.57477 2.76611 0
M  V30 5466 H 545.869 -4.79042 6.06415 0
M  V30 5467 H 544.214 -4.31361 5.44934 0
M  V30 5468 H 547.405 -3.12715 3.4832 0
M  V30 5469 H 547.578 -4.13768 4.98698 0
M  V30 5470 N 540.985 -1.06182 -1.16461 0
M  V30 5471 C 541.915 -0.692861 -2.22984 0
M  V30 5472 C 542.896 0.314122 -1.67174 0
M  V30 5473 O 544.081 0.189499 -1.93273 0
M  V30 5474 C 541.211 -0.07732 -3.47214 0
M  V30 5475 C 540.165 -1.01015 -4.15909 0
M  V30 5476 C 539.491 -0.257973 -5.34077 0
M  V30 5477 C 540.791 -2.33868 -4.67015 0
M  V30 5478 H 542.485 -1.58343 -2.54102 0
M  V30 5479 H 540.031 -0.76279 -1.22137 0
M  V30 5480 H 541.984 0.19266 -4.20959 0
M  V30 5481 H 540.708 0.848254 -3.15392 0
M  V30 5482 H 539.367 -1.26486 -3.44088 0
M  V30 5483 H 539.015 0.670684 -4.98509 0
M  V30 5484 H 538.715 -0.879638 -5.80979 0
M  V30 5485 H 540.239 0.00448788 -6.106 0
M  V30 5486 H 541.653 -2.1279 -5.32347 0
M  V30 5487 H 540.05 -2.91522 -5.24533 0
M  V30 5488 H 541.12 -2.97019 -3.83286 0
M  V30 5489 N 542.463 1.3308 -0.844243 0
M  V30 5490 C 543.693 2.01515 -0.455541 0
M  V30 5491 C 544.101 1.63655 0.949406 0
M  V30 5492 O 543.444 0.84848 1.62931 0
M  V30 5493 C 543.506 3.55967 -0.502801 0
M  V30 5494 C 543.17 4.17222 -1.86481 0
M  V30 5495 C 544.167 4.36205 -2.8288 0
M  V30 5496 C 541.852 4.53528 -2.15911 0
M  V30 5497 C 543.846 4.90649 -4.06869 0
M  V30 5498 C 541.533 5.07679 -3.40155 0
M  V30 5499 C 542.531 5.26186 -4.35451 0
M  V30 5500 O 542.219 5.79183 -5.57496 0
M  V30 5501 H 541.951 0.65199 -0.178565 0
M  V30 5502 H 544.505 1.70867 -1.1399 0
M  V30 5503 H 542.735 3.85965 0.23836 0
M  V30 5504 H 544.424 4.05688 -0.131169 0
M  V30 5505 H 545.19 4.085 -2.61444 0
M  V30 5506 H 541.069 4.38414 -1.42528 0
M  V30 5507 H 544.613 5.0501 -4.81259 0
M  V30 5508 H 540.51 5.34815 -3.61446 0
M  V30 5509 H 541.278 5.97591 -5.5931 0
M  V30 5510 N 543.941 0.601185 1.45683 0
M  V30 5511 C 545.181 0.0968037 2.04171 0
M  V30 5512 C 545.545 -1.2466 1.46027 0
M  V30 5513 O 546.746 -1.84132 1.95829 0
M  V30 5514 C 545.017 0.051384 3.57363 0
M  V30 5515 S 546.576 -0.392737 4.37039 0
M  V30 5516 H 543.394 0.0464504 0.709481 0
M  V30 5517 H 545.996 0.797846 1.78479 0
M  V30 5518 H 544.7 1.03274 3.97193 0
M  V30 5519 H 544.231 -0.671853 3.87621 0
M  V30 5520 H 546.246 -1.64364 4.68187 0
M  V30 5521 N 545.419 -1.53889 0.339982 0
M  V30 5522 C 546.666 -2.00855 -0.257621 0
M  V30 5523 C 546.994 -1.22788 -1.50842 0
M  V30 5524 O 546.249 -0.302567 -1.93347 0
M  V30 5525 C 546.548 -3.51968 -0.620735 0
M  V30 5526 C 546.214 -4.47741 0.532771 0
M  V30 5527 C 544.876 -4.73645 0.849339 0
M  V30 5528 C 547.228 -5.04551 1.3068 0
M  V30 5529 C 544.556 -5.53614 1.94237 0
M  V30 5530 C 546.908 -5.85713 2.39005 0
M  V30 5531 C 545.572 -6.09912 2.71225 0
M  V30 5532 H 544.842 -0.734979 -0.0942703 0
M  V30 5533 H 547.489 -1.85714 0.467159 0
M  V30 5534 H 545.794 -3.64921 -1.42618 0
M  V30 5535 H 547.491 -3.85762 -1.09495 0
M  V30 5536 H 544.081 -4.27711 0.275973 0
M  V30 5537 H 548.265 -4.84507 1.07549 0
M  V30 5538 H 543.521 -5.7059 2.19628 0
M  V30 5539 H 547.695 -6.28748 2.99415 0
M  V30 5540 H 545.322 -6.71665 3.56047 0
M  V30 5541 N 546.897 -0.0685191 -1.57451 0
M  V30 5542 C 548.145 0.60016 -1.92983 0
M  V30 5543 C 548.466 1.70348 -0.949028 0
M  V30 5544 O 547.736 1.959 0.00335647 0
M  V30 5545 H 546.316 0.224682 -0.712409 0
M  V30 5546 H 548.978 -0.125605 -1.94495 0
M  V30 5547 H 548.074 1.02759 -2.94698 0
M  V30 5548 N 548.375 1.56261 0.205012 0
M  V30 5549 C 549.791 1.49623 0.555433 0
M  V30 5550 C 549.991 0.766719 1.86343 0
M  V30 5551 O 549.047 0.313158 2.50551 0
M  V30 5552 C 550.36 2.94253 0.619347 0
M  V30 5553 C 551.908 3.04868 0.708855 0
M  V30 5554 C 552.383 4.50888 0.803969 0
M  V30 5555 N 553.874 4.54999 0.867758 0
M  V30 5556 C 554.609 5.65284 0.96135 0
M  V30 5557 N 554.105 6.85282 1.01786 0
M  V30 5558 N 555.898 5.53174 0.997771 0
M  V30 5559 H 548.049 2.0211 -0.653094 0
M  V30 5560 H 550.312 0.919333 -0.231366 0
M  V30 5561 H 550.018 3.50643 -0.272458 0
M  V30 5562 H 549.892 3.47063 1.47741 0
M  V30 5563 H 552.279 2.48532 1.5911 0
M  V30 5564 H 552.36 2.55199 -0.175205 0
M  V30 5565 H 552.004 5.07846 -0.0738798 0
M  V30 5566 H 551.934 4.98279 1.70369 0
M  V30 5567 H 554.425 3.68588 0.833735 0
M  V30 5568 H 554.738 7.65081 1.08951 0
M  V30 5569 H 553.083 6.8796 0.986706 0
M  V30 5570 H 556.274 4.5835 0.950392 0
M  V30 5571 H 556.447 6.39151 1.06725 0
M  V30 5572 N 549.853 -0.472356 1.50355 0
M  V30 5573 C 551.13 -1.23356 1.51798 0
M  V30 5574 C 551.51 -2.09469 0.26193 0
M  V30 5575 O 550.858 -2.15677 -0.754691 0
M  V30 5576 C 551.068 -2.06568 2.81302 0
M  V30 5577 C 552.416 -2.648 3.31913 0
M  V30 5578 O 553.44 -2.16812 2.82614 0
M  V30 5579 O 552.299 -3.52231 4.17846 0
M  V30 5580 H 549.393 -0.559707 0.608816 0
M  V30 5581 H 551.939 -0.48428 1.62643 0
M  V30 5582 H 550.711 -1.43103 3.64194 0
M  V30 5583 H 550.334 -2.88633 2.73454 0
M  V30 5584 N 551.331 -1.39911 -0.725443 0
M  V30 5585 C 552.579 -1.37382 -1.48224 0
M  V30 5586 C 552.9 0.0264107 -1.94982 0
M  V30 5587 O 552.17 0.979408 -1.6966 0
M  V30 5588 H 550.75 -0.505596 -0.549892 0
M  V30 5589 H 553.412 -1.7487 -0.860608 0
M  V30 5590 H 552.508 -2.04254 -2.3598 0
M  V30 5591 N 552.809 0.956637 -1.25245 0
M  V30 5592 C 553.772 2.03457 -1.05537 0
M  V30 5593 C 554.772 1.60798 -0.00886317 0
M  V30 5594 O 555.962 1.72384 -0.250865 0
M  V30 5595 C 553.094 3.35543 -0.601965 0
M  V30 5596 H 554.287 2.22372 -2.01223 0
M  V30 5597 H 551.84 1.13344 -1.07623 0
M  V30 5598 H 552.575 3.22323 0.357584 0
M  V30 5599 H 552.36 3.67854 -1.35743 0
M  V30 5600 H 553.85 4.14769 -0.485454 0
M  V30 5601 N 554.287 1.06798 1.15896 0
M  V30 5602 C 555.219 0.641263 2.20046 0
M  V30 5603 C 556.232 -0.303355 1.59949 0
M  V30 5604 O 557.421 -0.0935478 1.78255 0
M  V30 5605 C 554.521 -0.0794029 3.38807 0
M  V30 5606 C 553.694 0.879986 4.28457 0
M  V30 5607 C 552.753 0.197638 5.25829 0
M  V30 5608 O 551.779 0.836913 5.63014 0
M  V30 5609 N 552.981 -1.05886 5.70761 0
M  V30 5610 H 555.746 1.53718 2.57276 0
M  V30 5611 H 553.307 0.951951 1.30956 0
M  V30 5612 H 555.299 -0.546418 4.00994 0
M  V30 5613 H 553.869 -0.877193 3.0004 0
M  V30 5614 H 553.089 1.52625 3.63454 0
M  V30 5615 H 554.377 1.53065 4.8523 0
M  V30 5616 H 553.775 -1.59828 5.42652 0
M  V30 5617 H 552.332 -1.46965 6.35015 0
M  V30 5618 N 555.766 -1.3263 0.851289 0
M  V30 5619 C 556.696 -2.31449 0.308771 0
M  V30 5620 C 557.677 -1.59531 -0.590255 0
M  V30 5621 O 558.862 -1.87351 -0.511205 0
M  V30 5622 C 555.992 -3.43586 -0.506548 0
M  V30 5623 C 554.946 -4.26963 0.297753 0
M  V30 5624 C 554.272 -5.30831 -0.642094 0
M  V30 5625 C 555.572 -4.99643 1.52166 0
M  V30 5626 H 557.266 -2.77074 1.13447 0
M  V30 5627 H 554.812 -1.33207 0.546971 0
M  V30 5628 H 556.765 -4.11754 -0.896474 0
M  V30 5629 H 555.489 -2.96681 -1.36558 0
M  V30 5630 H 554.148 -3.60437 0.669391 0
M  V30 5631 H 553.796 -4.8018 -1.49788 0
M  V30 5632 H 553.496 -5.87501 -0.107968 0
M  V30 5633 H 555.02 -6.01862 -1.02927 0
M  V30 5634 H 556.434 -5.6051 1.20421 0
M  V30 5635 H 554.831 -5.66022 1.99347 0
M  V30 5636 H 555.901 -4.27701 2.28474 0
M  V30 5637 N 557.244 -0.608902 -1.45362 0
M  V30 5638 C 558.207 0.0992563 -2.28985 0
M  V30 5639 C 559.207 0.793841 -1.39838 0
M  V30 5640 O 560.397 0.641804 -1.61946 0
M  V30 5641 C 557.529 1.15073 -3.20891 0
M  V30 5642 H 558.722 -0.635964 -2.93079 0
M  V30 5643 H 556.275 -0.368007 -1.51906 0
M  V30 5644 H 557.01 1.91667 -2.616 0
M  V30 5645 H 556.795 0.656867 -3.86559 0
M  V30 5646 H 558.285 1.64665 -3.83765 0
M  V30 5647 N 558.722 1.53707 -0.348139 0
M  V30 5648 C 559.685 2.23812 0.494058 0
M  V30 5649 C 560.685 1.23989 1.02388 0
M  V30 5650 O 561.875 1.48395 0.912396 0
M  V30 5651 C 559.007 2.96133 1.68872 0
M  V30 5652 H 560.2 2.99663 -0.119141 0
M  V30 5653 H 557.753 1.55983 -0.0995539 0
M  V30 5654 H 558.488 2.24481 2.34049 0
M  V30 5655 H 558.273 3.69357 1.31596 0
M  V30 5656 H 559.763 3.49475 2.28597 0
M  V30 5657 N 560.2 0.0768682 1.57412 0
M  V30 5658 C 561.13 -0.886026 2.16037 0
M  V30 5659 C 562.111 -1.30691 1.08876 0
M  V30 5660 O 563.296 -1.37705 1.36934 0
M  V30 5661 C 560.426 -2.1518 2.72608 0
M  V30 5662 C 559.38 -1.87015 3.8498 0
M  V30 5663 C 558.706 -3.20266 4.28175 0
M  V30 5664 C 560.006 -1.17143 5.08994 0
M  V30 5665 H 561.7 -0.397642 2.96748 0
M  V30 5666 H 559.246 -0.189823 1.42743 0
M  V30 5667 H 561.199 -2.82962 3.12266 0
M  V30 5668 H 559.923 -2.66269 1.89125 0
M  V30 5669 H 558.582 -1.21636 3.45833 0
M  V30 5670 H 558.23 -3.69207 3.41607 0
M  V30 5671 H 557.93 -3.0221 5.03927 0
M  V30 5672 H 559.454 -3.89237 4.70454 0
M  V30 5673 H 560.868 -1.75003 5.45937 0
M  V30 5674 H 559.265 -1.09328 5.90057 0
M  V30 5675 H 560.335 -0.151295 4.84664 0
M  V30 5676 N 561.678 -1.56367 -0.196722 0
M  V30 5677 C 563.094 -1.49916 -0.54749 0
M  V30 5678 C 563.294 -0.77659 -1.85934 0
M  V30 5679 O 562.35 -0.32644 -2.50381 0
M  V30 5680 C 563.663 -2.94577 -0.603734 0
M  V30 5681 C 565.211 -3.05239 -0.692677 0
M  V30 5682 C 565.686 -4.51308 -0.780046 0
M  V30 5683 N 567.177 -4.55453 -0.843616 0
M  V30 5684 C 567.912 -5.65786 -0.931358 0
M  V30 5685 N 567.408 -6.85812 -0.981503 0
M  V30 5686 N 569.201 -5.53695 -0.968421 0
M  V30 5687 H 561.352 -2.01761 0.663803 0
M  V30 5688 H 563.615 -0.918094 0.236238 0
M  V30 5689 H 563.321 -3.50494 0.29105 0
M  V30 5690 H 563.195 -3.47841 -1.45898 0
M  V30 5691 H 565.582 -2.49372 -1.57789 0
M  V30 5692 H 565.663 -2.55103 0.188736 0
M  V30 5693 H 565.307 -5.078 0.100811 0
M  V30 5694 H 565.237 -4.99176 -1.67724 0
M  V30 5695 H 567.728 -3.69025 -0.814176 0
M  V30 5696 H 568.041 -7.65648 -1.04892 0
M  V30 5697 H 566.386 -6.88474 -0.950208 0
M  V30 5698 H 569.577 -4.58848 -0.926072 0
M  V30 5699 H 569.75 -6.39708 -1.03334 0
M  V30 5700 N 563.156 0.464375 -1.50603 0
M  V30 5701 C 564.567 1.04507 -1.5471 0
M  V30 5702 C 564.918 1.9297 -0.354542 0
M  V30 5703 O 564.043 2.09763 0.531812 0
M  V30 5704 C 564.638 1.90207 -2.80369 0
M  V30 5705 C 563.197 2.43373 -2.87135 0
M  V30 5706 C 562.344 1.21886 -2.49076 0
M  V30 5707 H 565.295 0.246716 -1.56771 0
M  V30 5708 H 565.316 2.75353 -2.62604 0
M  V30 5709 H 564.828 1.25796 -3.67147 0
M  V30 5710 H 562.929 3.11318 -2.04724 0
M  V30 5711 H 563.042 2.7802 -3.90181 0
M  V30 5712 H 561.406 1.55575 -2.01664 0
M  V30 5713 H 562.189 0.591268 -3.3817 0
M  V30 5714 N 564.634 1.40294 0.718013 0
M  V30 5715 C 565.544 1.42678 1.86226 0
M  V30 5716 C 566.56 0.319655 1.71039 0
M  V30 5717 O 567.736 0.563852 1.93346 0
M  V30 5718 C 564.801 1.2852 3.21999 0
M  V30 5719 C 563.862 2.49354 3.49458 0
M  V30 5720 C 563.095 2.35863 4.78753 0
M  V30 5721 O 563.318 1.37114 5.53675 0
M  V30 5722 O 562.252 3.25189 5.06494 0
M  V30 5723 H 566.078 2.39167 1.87171 0
M  V30 5724 H 563.663 1.2159 0.868112 0
M  V30 5725 H 565.545 1.22824 4.03103 0
M  V30 5726 H 564.22 0.351359 3.21787 0
M  V30 5727 H 563.127 2.60628 2.68373 0
M  V30 5728 H 564.46 3.41491 3.54464 0
M  V30 5729 N 566.112 -0.949982 1.2575 0
M  V30 5730 C 567.358 -1.69766 1.10938 0
M  V30 5731 C 567.691 -1.91056 -0.348028 0
M  V30 5732 O 566.966 -1.48488 -1.25625 0
M  V30 5733 C 567.249 -3.07779 1.86933 0
M  V30 5734 C 567.102 -2.9387 3.4053 0
M  V30 5735 C 568.421 -4.07749 1.65616 0
M  V30 5736 H 565.54 -0.616144 0.404396 0
M  V30 5737 H 568.182 -1.10394 1.54639 0
M  V30 5738 H 566.332 -3.58462 1.4979 0
M  V30 5739 H 568.004 -2.50476 3.87375 0
M  V30 5740 H 566.247 -2.29686 3.68004 0
M  V30 5741 H 566.918 -3.91719 3.88922 0
M  V30 5742 H 569.394 -3.65994 1.97959 0
M  V30 5743 H 568.27 -5.02348 2.21218 0
M  V30 5744 H 568.531 -4.38029 0.598595 0
M  V30 5745 N 567.59 -1.07411 -1.15328 0
M  V30 5746 C 568.553 -0.698914 -2.18284 0
M  V30 5747 C 569.553 0.261149 -1.58665 0
M  V30 5748 O 570.743 0.0420277 -1.74149 0
M  V30 5749 C 567.875 -0.0302427 -3.40887 0
M  V30 5750 H 569.068 -1.61045 -2.52991 0
M  V30 5751 H 566.621 -0.870724 -1.298 0
M  V30 5752 H 567.356 0.893505 -3.11748 0
M  V30 5753 H 567.141 -0.720759 -3.85419 0
M  V30 5754 H 568.631 0.21759 -4.17033 0
M  V30 5755 N 569.068 1.32177 -0.85831 0
M  V30 5756 C 569.978 2.32561 -0.308606 0
M  V30 5757 C 570.994 1.64209 0.575462 0
M  V30 5758 O 572.17 1.95719 0.474961 0
M  V30 5759 C 569.235 3.43207 0.490909 0
M  V30 5760 C 568.296 4.27243 -0.419733 0
M  V30 5761 C 567.529 5.32605 0.341719 0
M  V30 5762 O 567.752 5.48332 1.57125 0
M  V30 5763 O 566.686 6.0118 -0.294379 0
M  V30 5764 H 570.512 2.81477 -1.14037 0
M  V30 5765 H 568.097 1.35866 -0.621349 0
M  V30 5766 H 569.979 4.10677 0.944574 0
M  V30 5767 H 568.654 2.96474 1.29941 0
M  V30 5768 H 567.561 3.62569 -0.921652 0
M  V30 5769 H 568.894 4.7751 -1.19352 0
M  V30 5770 N 570.547 0.616602 1.45037 0
M  V30 5771 C 571.479 -0.135186 2.28801 0
M  V30 5772 C 572.492 -0.82303 1.40464 0
M  V30 5773 O 573.681 -0.686909 1.64754 0
M  V30 5774 C 570.781 -1.21292 3.16451 0
M  V30 5775 C 569.954 -0.61043 4.3312 0
M  V30 5776 C 569.013 -1.58022 5.01912 0
M  V30 5777 O 568.039 -1.10301 5.58411 0
M  V30 5778 N 569.241 -2.91464 5.02025 0
M  V30 5779 H 572.006 0.583612 2.93963 0
M  V30 5780 H 569.567 0.456723 1.55324 0
M  V30 5781 H 571.559 -1.86169 3.59337 0
M  V30 5782 H 570.129 -1.83412 2.53138 0
M  V30 5783 H 569.349 0.216638 3.93604 0
M  V30 5784 H 570.637 -0.188293 5.08451 0
M  V30 5785 H 570.035 -3.32829 4.57429 0
M  V30 5786 H 568.592 -3.51741 5.48745 0
M  V30 5787 N 572.025 -1.5352 0.356285 0
M  V30 5788 C 573.253 -2.05534 -0.237328 0
M  V30 5789 C 573.668 -1.23043 -1.43199 0
M  V30 5790 O 573.025 -0.268821 -1.80509 0
M  V30 5791 C 573.076 -3.55791 -0.639933 0
M  V30 5792 O 572.797 -4.35154 0.507233 0
M  V30 5793 C 574.298 -4.24027 -1.29292 0
M  V30 5794 H 571.518 -0.669585 -0.0435572 0
M  V30 5795 H 574.062 -1.97988 0.511963 0
M  V30 5796 H 572.217 -3.63518 -1.33915 0
M  V30 5797 H 572.631 -5.24178 0.18375 0
M  V30 5798 H 574.105 -5.30509 -1.52527 0
M  V30 5799 H 574.582 -3.77166 -2.25039 0
M  V30 5800 H 575.188 -4.20527 -0.63539 0
M  V30 5801 N 573.503 -0.0852151 -1.57369 0
M  V30 5802 C 574.413 0.891712 -2.16992 0
M  V30 5803 C 575.429 1.3174 -1.13669 0
M  V30 5804 O 576.605 1.38735 -1.45995 0
M  V30 5805 C 573.67 2.13635 -2.73059 0
M  V30 5806 C 572.731 1.7658 -3.91303 0
M  V30 5807 C 571.964 2.95111 -4.44686 0
M  V30 5808 O 572.187 4.09539 -3.97032 0
M  V30 5809 O 571.121 2.74149 -5.35841 0
M  V30 5810 H 574.947 0.414477 -3.00858 0
M  V30 5811 H 572.532 0.138598 -1.48756 0
M  V30 5812 H 574.414 2.86595 -3.08935 0
M  V30 5813 H 573.089 2.6043 -1.92244 0
M  V30 5814 H 571.996 1.00831 -3.60255 0
M  V30 5815 H 573.329 1.34557 -4.7345 0
M  V30 5816 N 574.981 1.5647 0.188427 0
M  V30 5817 C 576.209 1.85131 0.923803 0
M  V30 5818 C 576.624 0.668537 1.76567 0
M  V30 5819 O 575.981 -0.362662 1.7886 0
M  V30 5820 C 576.032 3.12661 1.81453 0
M  V30 5821 O 575.753 4.26378 1.00665 0
M  V30 5822 C 577.254 3.54548 2.66103 0
M  V30 5823 H 574.474 0.614624 0.269218 0
M  V30 5824 H 577.018 2.03581 0.193671 0
M  V30 5825 H 575.173 2.96088 2.49821 0
M  V30 5826 H 575.587 4.99041 1.61425 0
M  V30 5827 H 577.061 4.4673 3.24247 0
M  V30 5828 H 577.538 2.77853 3.40139 0
M  V30 5829 H 578.144 3.73674 2.03096 0
M  V30 5830 N 576.459 -0.456382 1.50847 0
M  V30 5831 C 577.392 -1.57177 1.65441 0
M  V30 5832 C 578.37 -1.54649 0.502224 0
M  V30 5833 O 579.554 -1.74057 0.723633 0
M  V30 5834 C 576.681 -2.95763 1.65052 0
M  V30 5835 C 575.727 -3.16389 2.86007 0
M  V30 5836 S 576.56 -2.94716 4.47105 0
M  V30 5837 C 577.716 -4.35617 4.49432 0
M  V30 5838 H 577.949 -1.44561 2.59787 0
M  V30 5839 H 575.482 -0.644758 1.40293 0
M  V30 5840 H 577.44 -3.75654 1.65512 0
M  V30 5841 H 576.101 -3.05756 0.719153 0
M  V30 5842 H 575.294 -4.17667 2.82081 0
M  V30 5843 H 574.896 -2.44293 2.8319 0
M  V30 5844 H 577.188 -5.28503 4.239 0
M  V30 5845 H 578.131 -4.44582 5.51137 0
M  V30 5846 H 578.539 -4.18382 3.78967 0
M  V30 5847 N 577.937 -1.40673 -0.710563 0
M  V30 5848 C 578.847 -1.43663 -1.85467 0
M  V30 5849 C 579.863 -0.328721 -1.70867 0
M  V30 5850 O 581.039 -0.574098 -1.93044 0
M  V30 5851 C 578.104 -1.30226 -3.21313 0
M  V30 5852 C 577.165 -2.51204 -3.48131 0
M  V30 5853 C 576.398 -2.38398 -4.77495 0
M  V30 5854 O 576.621 -1.40048 -5.5294 0
M  V30 5855 O 575.555 -3.2787 -5.04762 0
M  V30 5856 H 579.381 -2.40156 -1.859 0
M  V30 5857 H 576.966 -1.22049 -0.861652 0
M  V30 5858 H 578.848 -1.2496 -4.02446 0
M  V30 5859 H 577.523 -0.368419 -3.21597 0
M  V30 5860 H 576.43 -2.62048 -2.66987 0
M  V30 5861 H 577.763 -3.43366 -3.52648 0
M  V30 5862 N 579.415 0.9433 -1.26252 0
M  V30 5863 C 580.347 2.04542 -1.03417 0
M  V30 5864 C 581.36 1.62799 0.0046911 0
M  V30 5865 O 582.549 1.76944 -0.235146 0
M  V30 5866 C 579.649 3.34511 -0.543671 0
M  V30 5867 C 578.822 4.05033 -1.65128 0
M  V30 5868 C 577.881 5.13273 -1.1592 0
M  V30 5869 O 576.907 5.38095 -1.85586 0
M  V30 5870 N 578.109 5.805 -0.00649279 0
M  V30 5871 H 580.874 2.24699 -1.98319 0
M  V30 5872 H 578.435 1.11264 -1.1761 0
M  V30 5873 H 580.427 4.04212 -0.198703 0
M  V30 5874 H 578.997 3.11042 0.311711 0
M  V30 5875 H 578.217 3.29275 -2.16729 0
M  V30 5876 H 579.505 4.48903 -2.39508 0
M  V30 5877 H 578.903 5.62767 0.575347 0
M  V30 5878 H 577.46 6.51201 0.279416 0
M  V30 5879 N 580.893 1.08022 1.14757 0
M  V30 5880 C 581.856 0.71048 2.1791 0
M  V30 5881 C 582.856 -0.252731 1.58801 0
M  V30 5882 O 584.046 -0.0327915 1.74169 0
M  V30 5883 C 581.178 0.0483203 3.40866 0
M  V30 5884 H 582.371 1.62384 2.52134 0
M  V30 5885 H 579.924 0.877595 1.29337 0
M  V30 5886 H 580.659 -0.876959 3.12218 0
M  V30 5887 H 580.444 0.741189 3.85031 0
M  V30 5888 H 581.934 -0.195471 4.17142 0
M  V30 5889 N 582.371 -1.3172 0.865308 0
M  V30 5890 C 583.304 -2.26687 0.262376 0
M  V30 5891 C 584.282 -1.50894 -0.605787 0
M  V30 5892 O 585.466 -1.79982 -0.56024 0
M  V30 5893 C 582.593 -3.3281 -0.628915 0
M  V30 5894 C 581.639 -4.26172 0.167278 0
M  V30 5895 S 582.472 -5.12797 1.54272 0
M  V30 5896 C 583.628 -6.22438 0.657427 0
M  V30 5897 H 583.861 -2.77478 1.0674 0
M  V30 5898 H 581.394 -1.39414 0.663555 0
M  V30 5899 H 583.352 -3.94426 -1.13747 0
M  V30 5900 H 582.013 -2.80782 -1.40785 0
M  V30 5901 H 581.206 -5.01392 -0.51203 0
M  V30 5902 H 580.808 -3.69029 0.607777 0
M  V30 5903 H 583.1 -6.77368 -0.133925 0
M  V30 5904 H 584.043 -6.9451 1.38061 0
M  V30 5905 H 584.451 -5.64043 0.227044 0
M  V30 5906 N 583.85 -0.624285 -1.44708 0
M  V30 5907 C 585.266 -0.289322 -1.56956 0
M  V30 5908 C 585.466 1.20773 -1.61295 0
M  V30 5909 O 584.522 1.9915 -1.55227 0
M  V30 5910 C 585.835 -0.975215 -2.84447 0
M  V30 5911 C 587.383 -0.952709 -2.98148 0
M  V30 5912 C 587.858 -1.61893 -4.28433 0
M  V30 5913 N 589.349 -1.5852 -4.35231 0
M  V30 5914 C 590.084 -2.06969 -5.34744 0
M  V30 5915 N 589.58 -2.63579 -6.40701 0
M  V30 5916 N 591.373 -1.97638 -5.26209 0
M  V30 5917 H 583.524 -1.59612 -1.40135 0
M  V30 5918 H 585.787 -0.669592 -0.671081 0
M  V30 5919 H 585.493 -2.02999 -2.87201 0
M  V30 5920 H 585.367 -0.508749 -3.73753 0
M  V30 5921 H 587.754 0.093568 -2.94952 0
M  V30 5922 H 587.835 -1.4576 -2.10209 0
M  V30 5923 H 587.479 -2.66463 -4.32389 0
M  V30 5924 H 587.409 -1.08893 -5.15218 0
M  V30 5925 H 589.899 -1.17183 -3.59272 0
M  V30 5926 H 590.213 -2.98298 -7.12908 0
M  V30 5927 H 588.558 -2.67626 -6.41406 0
M  V30 5928 H 591.749 -1.5314 -4.42341 0
M  V30 5929 H 591.922 -2.35708 -6.03611 0
M  V30 5930 N 585.328 1.53329 -0.364422 0
M  V30 5931 C 586.258 2.28627 0.474543 0
M  V30 5932 C 587.239 1.31009 1.08492 0
M  V30 5933 O 588.424 1.59878 1.10239 0
M  V30 5934 C 585.554 3.07465 1.61501 0
M  V30 5935 C 584.508 4.1276 1.13194 0
M  V30 5936 C 583.834 4.79674 2.36255 0
M  V30 5937 C 585.134 5.21847 0.217507 0
M  V30 5938 H 586.828 2.99005 -0.153656 0
M  V30 5939 H 584.374 1.43803 -0.0753406 0
M  V30 5940 H 586.327 3.58889 2.20855 0
M  V30 5941 H 585.051 2.34775 2.27042 0
M  V30 5942 H 583.71 3.62281 0.56109 0
M  V30 5943 H 583.358 4.03557 3.00251 0
M  V30 5944 H 583.058 5.50827 2.04606 0
M  V30 5945 H 584.582 5.33892 2.96297 0
M  V30 5946 H 585.996 5.6878 0.718493 0
M  V30 5947 H 584.393 6.00099 -0.00806408 0
M  V30 5948 H 585.463 4.7921 -0.740653 0
M  V30 5949 N 586.806 0.0935595 1.57322 0
M  V30 5950 C 587.736 -0.863062 2.16964 0
M  V30 5951 C 588.717 -1.29528 1.10256 0
M  V30 5952 O 589.902 -1.36245 1.38387 0
M  V30 5953 C 587.032 -2.12276 2.74875 0
M  V30 5954 C 585.986 -1.82921 3.86942 0
M  V30 5955 C 585.312 -3.15707 4.31548 0
M  V30 5956 C 586.612 -1.11737 5.10208 0
M  V30 5957 H 588.306 -0.366145 2.97153 0
M  V30 5958 H 585.852 -0.174673 1.42937 0
M  V30 5959 H 587.805 -2.79634 3.1525 0
M  V30 5960 H 586.529 -2.64248 1.91938 0
M  V30 5961 H 585.188 -1.17961 3.47103 0
M  V30 5962 H 584.836 -3.65563 3.45504 0
M  V30 5963 H 584.536 -2.96849 5.07104 0
M  V30 5964 H 586.06 -3.84226 4.74555 0
M  V30 5965 H 587.474 -1.69203 5.47762 0
M  V30 5966 H 585.871 -1.03064 5.91183 0
M  V30 5967 H 586.941 -0.0998818 4.84797 0
M  V30 5968 N 588.284 -1.56567 -0.180126 0
M  V30 5969 C 589.247 -1.94852 -1.20686 0
M  V30 5970 C 590.247 -0.831212 -1.3765 0
M  V30 5971 O 591.437 -1.09841 -1.35206 0
M  V30 5972 C 588.569 -2.23565 -2.57355 0
M  V30 5973 H 589.762 -2.86722 -0.879225 0
M  V30 5974 H 587.315 -1.50489 -0.422237 0
M  V30 5975 H 588.05 -1.34381 -2.95148 0
M  V30 5976 H 587.835 -3.04999 -2.46411 0
M  V30 5977 H 589.325 -2.54137 -3.31367 0
M  V30 5978 N 589.762 0.448376 -1.51087 0
M  V30 5979 C 591.173 1.0286 -1.5581 0
M  V30 5980 C 591.524 1.92583 -0.374989 0
M  V30 5981 O 590.649 2.10316 0.509533 0
M  V30 5982 C 591.244 1.87223 -2.8237 0
M  V30 5983 C 589.803 2.40314 -2.897 0
M  V30 5984 C 588.95 1.19238 -2.50355 0
M  V30 5985 H 591.901 0.230075 -1.57023 0
M  V30 5986 H 591.922 2.72553 -2.6551 0
M  V30 5987 H 591.434 1.21894 -3.68461 0
M  V30 5988 H 589.535 3.09129 -2.08014 0
M  V30 5989 H 589.648 2.73866 -3.93108 0
M  V30 5990 H 588.012 1.53428 -2.03303 0
M  V30 5991 H 588.795 0.555367 -3.38778 0
M  V30 5992 N 591.24 1.41047 0.703093 0
M  V30 5993 C 592.656 1.23351 1.01275 0
M  V30 5994 C 592.856 0.11754 2.01157 0
M  V30 5995 O 591.912 -0.520518 2.47077 0
M  V30 5996 C 593.225 2.58001 1.54454 0
M  V30 5997 C 594.773 2.65119 1.66376 0
M  V30 5998 C 595.248 4.00067 2.22958 0
M  V30 5999 N 596.739 4.01875 2.30328 0
M  V30 6000 C 597.474 5.03087 2.75119 0
M  V30 6001 N 596.97 6.14692 3.19571 0
M  V30 6002 N 598.763 4.90451 2.74616 0
M  V30 6003 H 590.914 2.1236 0.0412686 0
M  V30 6004 H 593.177 0.944543 0.08089 0
M  V30 6005 H 592.883 3.40378 0.88521 0
M  V30 6006 H 592.757 2.79962 2.52786 0
M  V30 6007 H 595.144 1.83106 2.31422 0
M  V30 6008 H 595.225 2.46975 0.666089 0
M  V30 6009 H 594.869 4.82526 1.58529 0
M  V30 6010 H 594.799 4.15547 3.23462 0
M  V30 6011 H 597.29 3.21291 1.98949 0
M  V30 6012 H 597.603 6.87799 3.52352 0
M  V30 6013 H 595.948 6.18239 3.17498 0
M  V30 6014 H 599.139 4.0235 2.39233 0
M  V30 6015 H 599.312 5.6947 3.09206 0
M  V30 6016 N 592.718 -0.936591 1.26751 0
M  V30 6017 C 593.964 -1.6858 1.12733 0
M  V30 6018 C 594.297 -1.91414 -0.327745 0
M  V30 6019 O 593.572 -1.49812 -1.24043 0
M  V30 6020 C 593.855 -3.05779 1.90187 0
M  V30 6021 C 593.708 -2.90242 3.43627 0
M  V30 6022 C 595.027 -4.0597 1.69931 0
M  V30 6023 H 592.146 -0.61182 0.410908 0
M  V30 6024 H 594.788 -1.08747 1.55801 0
M  V30 6025 H 592.938 -3.56853 1.53584 0
M  V30 6026 H 594.61 -2.46354 3.9001 0
M  V30 6027 H 592.853 -2.2577 3.70419 0
M  V30 6028 H 593.524 -3.87572 3.93055 0
M  V30 6029 H 596 -3.63874 2.0183 0
M  V30 6030 H 594.876 -4.99974 2.26534 0
M  V30 6031 H 595.137 -4.37369 0.64502 0
M  V30 6032 N 594.196 -1.08629 -1.14182 0
M  V30 6033 C 595.128 -0.676189 -2.18998 0
M  V30 6034 C 596.141 0.277871 -1.60411 0
M  V30 6035 O 597.33 0.0651771 -1.78381 0
M  V30 6036 C 594.43 0.0254916 -3.3889 0
M  V30 6037 C 593.603 -0.948039 -4.27002 0
M  V30 6038 C 592.662 -0.281268 -5.25448 0
M  V30 6039 O 591.688 -0.926378 -5.61611 0
M  V30 6040 N 592.89 0.967923 -5.72374 0
M  V30 6041 H 595.655 -1.57792 -2.54798 0
M  V30 6042 H 593.216 -0.972665 -1.29425 0
M  V30 6043 H 595.208 0.482554 -4.01813 0
M  V30 6044 H 593.778 0.829348 -3.01398 0
M  V30 6045 H 592.998 -1.58388 -3.6098 0
M  V30 6046 H 594.286 -1.60765 -4.82734 0
M  V30 6047 H 593.684 1.51175 -5.45126 0
M  V30 6048 H 592.241 1.36844 -6.37273 0
M  V30 6049 N 595.674 1.31259 -0.872281 0
M  V30 6050 C 597.085 1.78822 -0.536617 0
M  V30 6051 C 597.436 1.71855 0.946594 0
M  V30 6052 O 596.561 1.28769 1.73918 0
M  V30 6053 C 597.156 3.24698 -0.967294 0
M  V30 6054 C 595.715 3.70147 -0.683251 0
M  V30 6055 C 594.862 2.51994 -1.15733 0
M  V30 6056 H 597.813 1.18308 -1.05777 0
M  V30 6057 H 597.834 3.79386 -0.290929 0
M  V30 6058 H 597.346 3.29737 -2.04683 0
M  V30 6059 H 595.447 3.70607 0.384825 0
M  V30 6060 H 595.56 4.62183 -1.2619 0
M  V30 6061 H 593.924 2.48078 -0.577024 0
M  V30 6062 H 594.707 2.59778 -2.24434 0
M  V30 6063 N 597.152 0.631951 1.44375 0
M  V30 6064 C 598.4 0.136497 2.01639 0
M  V30 6065 C 598.721 -1.24637 1.49969 0
M  V30 6066 O 597.991 -1.82827 0.70363 0
M  V30 6067 H 596.571 0.0474703 0.74549 0
M  V30 6068 H 599.233 0.818837 1.76865 0
M  V30 6069 H 598.329 0.104817 3.11924 0
M  V30 6070 N 598.631 -1.53133 0.372548 0
M  V30 6071 C 599.908 -1.93704 -0.271693 0
M  V30 6072 C 600.288 -1.30667 -1.65799 0
M  V30 6073 O 599.636 -0.46838 -2.23648 0
M  V30 6074 C 599.846 -3.47576 -0.314903 0
M  V30 6075 C 601.194 -4.20998 -0.551912 0
M  V30 6076 O 602.218 -3.53994 -0.39582 0
M  V30 6077 O 601.077 -5.39748 -0.85639 0
M  V30 6078 H 598.171 -0.810457 -0.164586 0
M  V30 6079 H 600.717 -1.6427 0.425838 0
M  V30 6080 H 599.489 -3.85749 0.656792 0
M  V30 6081 H 599.112 -3.83264 -1.05804 0
M  V30 6082 N 600.109 -0.101901 -1.5727 0
M  V30 6083 C 601.042 0.891377 -2.10071 0
M  V30 6084 C 602.02 1.27197 -1.01291 0
M  V30 6085 O 603.204 1.37602 -1.28833 0
M  V30 6086 C 600.331 2.19049 -2.58331 0
M  V30 6087 C 599.377 1.95925 -3.78834 0
M  V30 6088 S 600.21 1.19106 -5.22086 0
M  V30 6089 C 601.366 2.50234 -5.73702 0
M  V30 6090 H 601.599 0.442212 -2.93993 0
M  V30 6091 H 599.132 0.111529 -1.53997 0
M  V30 6092 H 601.09 2.937 -2.86793 0
M  V30 6093 H 599.751 2.61086 -1.74622 0
M  V30 6094 H 598.944 2.92143 -4.10693 0
M  V30 6095 H 598.546 1.29401 -3.50901 0
M  V30 6096 H 600.838 3.46173 -5.82384 0
M  V30 6097 H 601.781 2.22944 -6.72088 0
M  V30 6098 H 602.189 2.58818 -5.01671 0
M  V30 6099 N 601.587 1.56661 0.17182 0
M  V30 6100 C 602.833 1.82235 0.889845 0
M  V30 6101 C 603.166 0.679673 1.81918 0
M  V30 6102 O 602.441 -0.318404 1.91876 0
M  V30 6103 C 602.724 3.18195 1.68595 0
M  V30 6104 C 602.577 4.42989 0.779773 0
M  V30 6105 C 603.896 3.5109 2.65375 0
M  V30 6106 H 601.015 0.66291 0.322056 0
M  V30 6107 H 603.657 1.89358 0.15608 0
M  V30 6108 H 601.807 3.12253 2.3115 0
M  V30 6109 H 603.479 4.60997 0.16714 0
M  V30 6110 H 601.722 4.33711 0.0877964 0
M  V30 6111 H 602.393 5.3467 1.3723 0
M  V30 6112 H 604.869 3.57482 2.12946 0
M  V30 6113 H 603.745 4.47298 3.18144 0
M  V30 6114 H 604.006 2.75768 3.45549 0
M  V30 6115 N 603.065 -0.440357 1.51323 0
M  V30 6116 C 603.995 -1.54174 1.75364 0
M  V30 6117 C 604.976 -1.59039 0.603375 0
M  V30 6118 O 606.161 -1.74815 0.845774 0
M  V30 6119 C 603.291 -2.92277 1.87593 0
M  V30 6120 C 602.245 -3.02274 3.03009 0
M  V30 6121 C 601.571 -4.42327 3.00418 0
M  V30 6122 C 602.871 -2.76634 4.43024 0
M  V30 6123 H 604.565 -1.34307 2.67585 0
M  V30 6124 H 602.111 -0.644678 1.28763 0
M  V30 6125 H 604.064 -3.69284 2.02995 0
M  V30 6126 H 602.788 -3.13369 0.920179 0
M  V30 6127 H 601.447 -2.27706 2.87307 0
M  V30 6128 H 601.095 -4.60382 2.02626 0
M  V30 6129 H 600.795 -4.49946 3.77918 0
M  V30 6130 H 602.319 -5.21312 3.17909 0
M  V30 6131 H 603.733 -3.43376 4.59093 0
M  V30 6132 H 602.13 -2.95666 5.22208 0
M  V30 6133 H 603.2 -1.72262 4.5327 0
M  V30 6134 N 604.543 -1.41418 -0.695603 0
M  V30 6135 C 605.473 -1.46035 -1.82197 0
M  V30 6136 C 606.454 -0.319025 -1.67082 0
M  V30 6137 O 607.639 -0.530462 -1.86815 0
M  V30 6138 C 604.769 -1.34179 -3.20333 0
M  V30 6139 C 603.723 -2.46123 -3.50154 0
M  V30 6140 C 603.049 -2.19332 -4.87645 0
M  V30 6141 C 604.349 -3.88463 -3.49133 0
M  V30 6142 H 606.043 -2.40303 -1.78591 0
M  V30 6143 H 603.589 -1.15663 -0.857797 0
M  V30 6144 H 605.542 -1.36021 -3.98844 0
M  V30 6145 H 604.266 -0.363952 -3.24566 0
M  V30 6146 H 602.925 -2.43563 -2.73994 0
M  V30 6147 H 602.573 -1.19891 -4.88503 0
M  V30 6148 H 602.273 -2.94344 -5.08562 0
M  V30 6149 H 603.797 -2.22889 -5.68465 0
M  V30 6150 H 605.211 -3.92738 -4.17648 0
M  V30 6151 H 603.608 -4.63158 -3.81582 0
M  V30 6152 H 604.678 -4.16617 -2.48109 0
M  V30 6153 N 606.021 0.929856 -1.27246 0
M  V30 6154 C 607.246 1.71674 -1.16374 0
M  V30 6155 C 607.671 1.86064 0.276024 0
M  V30 6156 O 607.029 1.3591 1.19992 0
M  V30 6157 C 607.077 3.09526 -1.85003 0
M  V30 6158 O 606.181 3.96142 -1.14653 0
M  V30 6159 H 605.522 0.52629 -0.404863 0
M  V30 6160 H 608.052 1.16381 -1.68276 0
M  V30 6161 H 608.062 3.59852 -1.92276 0
M  V30 6162 H 606.737 2.98369 -2.89739 0
M  V30 6163 H 605.314 3.54584 -1.15433 0
M  V30 6164 N 607.499 1.09233 1.13605 0
M  V30 6165 C 608.91 0.846839 1.6639 0
M  V30 6166 C 609.261 -0.625031 1.85978 0
M  V30 6167 O 608.386 -1.48173 1.57714 0
M  V30 6168 C 608.981 1.5307 3.0225 0
M  V30 6169 C 607.54 1.33223 3.52035 0
M  V30 6170 C 606.687 1.58806 2.27323 0
M  V30 6171 H 609.638 1.25175 0.975541 0
M  V30 6172 H 609.659 0.96267 3.68121 0
M  V30 6173 H 609.171 2.60192 2.87961 0
M  V30 6174 H 607.272 0.282091 3.71531 0
M  V30 6175 H 607.385 2.0657 4.32279 0
M  V30 6176 H 605.749 1.01007 2.33815 0
M  V30 6177 H 606.532 2.67153 2.15602 0
M  V30 6178 N 608.977 -1.30795 0.87923 0
M  V30 6179 C 609.94 -2.26563 0.346676 0
M  V30 6180 C 610.94 -1.52578 -0.507597 0
M  V30 6181 O 612.13 -1.71318 -0.315575 0
M  V30 6182 C 609.262 -3.37115 -0.506611 0
M  V30 6183 H 610.455 -2.75183 1.19223 0
M  V30 6184 H 608.008 -1.41886 0.655598 0
M  V30 6185 H 608.743 -2.93802 -1.37299 0
M  V30 6186 H 608.528 -3.91959 0.105218 0
M  V30 6187 H 610.018 -4.08412 -0.871192 0
M  V30 6188 N 610.455 -0.639598 -1.44038 0
M  V30 6189 C 611.695 -0.150902 -2.03842 0
M  V30 6190 C 612.059 1.20744 -1.49281 0
M  V30 6191 O 613.26 1.78875 -2.00642 0
M  V30 6192 C 611.531 -0.146114 -3.57101 0
M  V30 6193 S 613.09 0.276725 -4.37927 0
M  V30 6194 H 609.908 -0.0652447 -0.708 0
M  V30 6195 H 612.51 -0.844886 -1.76301 0
M  V30 6196 H 611.214 -1.13769 -3.94316 0
M  V30 6197 H 610.745 0.568846 -3.89266 0
M  V30 6198 H 612.76 1.51893 -4.7238 0
M  V30 6199 N 611.933 1.52934 -0.380664 0
M  V30 6200 C 612.896 2.24809 0.446473 0
M  V30 6201 C 613.896 1.26133 0.997347 0
M  V30 6202 O 615.086 1.50297 0.880714 0
M  V30 6203 C 612.218 2.99649 1.62553 0
M  V30 6204 H 613.411 2.99343 -0.182677 0
M  V30 6205 H 610.964 1.55736 -0.132618 0
M  V30 6206 H 611.699 2.29395 2.29235 0
M  V30 6207 H 611.484 3.72066 1.23732 0
M  V30 6208 H 612.974 3.54246 2.21133 0
M  V30 6209 N 613.412 0.11024 1.57214 0
M  V30 6210 C 614.637 -0.561179 1.99664 0
M  V30 6211 C 615.062 -1.59985 0.989266 0
M  V30 6212 O 614.42 -1.81255 -0.0402399 0
M  V30 6213 C 614.468 -1.17189 3.41027 0
M  V30 6214 O 613.572 -2.28755 3.4314 0
M  V30 6215 H 612.913 -0.14101 0.648855 0
M  V30 6216 H 615.443 0.196128 2.03658 0
M  V30 6217 H 615.453 -1.50954 3.79047 0
M  V30 6218 H 614.128 -0.411041 4.13864 0
M  V30 6219 H 612.705 -1.96495 3.16929 0
M  V30 6220 N 614.89 -1.56749 -0.16351 0
M  V30 6221 C 615.82 -2.00042 -1.20438 0
M  V30 6222 C 616.801 -0.877256 -1.45733 0
M  V30 6223 O 617.986 -1.1439 -1.56935 0
M  V30 6224 C 615.116 -2.36697 -2.54149 0
M  V30 6225 C 614.07 -3.52046 -2.43408 0
M  V30 6226 C 613.396 -3.74466 -3.81679 0
M  V30 6227 C 614.696 -4.85247 -1.93216 0
M  V30 6228 H 616.39 -2.87244 -0.844477 0
M  V30 6229 H 613.936 -1.38194 -0.40478 0
M  V30 6230 H 615.889 -2.65582 -3.27176 0
M  V30 6231 H 614.613 -1.46414 -2.91943 0
M  V30 6232 H 613.272 -3.23301 -1.72834 0
M  V30 6233 H 612.92 -2.81461 -4.1688 0
M  V30 6234 H 612.62 -4.52084 -3.75359 0
M  V30 6235 H 614.144 -4.0576 -4.5628 0
M  V30 6236 H 615.558 -5.12957 -2.56023 0
M  V30 6237 H 613.955 -5.66556 -1.97825 0
M  V30 6238 H 615.025 -4.7672 -0.88689 0
M  V30 6239 N 616.368 0.432326 -1.51554 0
M  V30 6240 C 617.645 1.19288 -1.55015 0
M  V30 6241 C 618.025 2.08701 -0.317375 0
M  V30 6242 O 617.373 2.17602 0.697243 0
M  V30 6243 C 617.583 1.99037 -2.86679 0
M  V30 6244 C 618.931 2.55907 -3.38817 0
M  V30 6245 O 619.955 2.09243 -2.88263 0
M  V30 6246 O 618.814 3.41029 -4.27038 0
M  V30 6247 H 615.908 0.543369 -0.623441 0
M  V30 6248 H 618.454 0.440988 -1.6387 0
M  V30 6249 H 617.226 1.33397 -3.6786 0
M  V30 6250 H 616.849 2.81281 -2.8101 0
M  V30 6251 N 617.846 1.41785 0.688094 0
M  V30 6252 C 618.778 1.40159 1.81351 0
M  V30 6253 C 619.791 0.30262 1.59963 0
M  V30 6254 O 620.98 0.564841 1.69327 0
M  V30 6255 C 618.08 1.16517 3.1824 0
M  V30 6256 C 617.253 2.38597 3.66593 0
M  V30 6257 C 616.312 2.10699 4.82174 0
M  V30 6258 O 615.338 2.83798 4.93404 0
M  V30 6259 N 616.54 1.10187 5.69947 0
M  V30 6260 H 619.305 2.3716 1.83236 0
M  V30 6261 H 616.866 1.36494 0.870697 0
M  V30 6262 H 618.858 0.957941 3.93199 0
M  V30 6263 H 617.428 0.280873 3.11336 0
M  V30 6264 H 616.648 2.74974 2.82459 0
M  V30 6265 H 617.936 3.19919 3.95638 0
M  V30 6266 H 617.334 0.497016 5.63512 0
M  V30 6267 H 615.891 0.954518 6.44773 0
M  V30 6268 N 619.324 -0.923095 1.27737 0
M  V30 6269 C 620.571 -1.67127 1.14345 0
M  V30 6270 C 620.899 -1.92017 -0.30982 0
M  V30 6271 O 620.154 -1.51185 -1.24264 0
M  V30 6272 C 620.453 -3.04125 1.8773 0
M  V30 6273 C 620.119 -2.98929 3.37568 0
M  V30 6274 C 618.781 -2.9722 3.78436 0
M  V30 6275 C 621.133 -2.89875 4.33154 0
M  V30 6276 C 618.461 -2.84244 5.13247 0
M  V30 6277 C 620.813 -2.7844 5.68026 0
M  V30 6278 C 619.477 -2.75083 6.08182 0
M  V30 6279 H 618.747 -0.611562 0.418417 0
M  V30 6280 H 621.394 -1.07618 1.584 0
M  V30 6281 H 619.699 -3.67366 1.36196 0
M  V30 6282 H 621.396 -3.609 1.74792 0
M  V30 6283 H 617.986 -3.0105 3.05069 0
M  V30 6284 H 622.17 -2.9029 4.02548 0
M  V30 6285 H 617.426 -2.80034 5.43499 0
M  V30 6286 H 621.6 -2.70401 6.4176 0
M  V30 6287 H 619.227 -2.64786 7.12596 0
M  V30 6288 N 620.802 -1.09834 -1.13024 0
M  V30 6289 C 621.749 -0.741522 -2.18564 0
M  V30 6290 C 622.719 0.279236 -1.63736 0
M  V30 6291 O 623.904 0.159923 -1.90129 0
M  V30 6292 C 621.044 -0.17277 -3.44667 0
M  V30 6293 C 620.157 -1.24808 -4.13578 0
M  V30 6294 C 619.292 -0.641631 -5.27311 0
M  V30 6295 C 618.331 -1.69795 -5.88078 0
M  V30 6296 N 617.468 -1.11223 -6.93234 0
M  V30 6297 H 622.308 -1.64576 -2.48432 0
M  V30 6298 H 619.845 -0.822174 -1.21978 0
M  V30 6299 H 621.803 0.17482 -4.16834 0
M  V30 6300 H 620.433 0.694725 -3.15235 0
M  V30 6301 H 619.485 -1.71288 -3.39653 0
M  V30 6302 H 620.797 -2.04795 -4.54819 0
M  V30 6303 H 619.951 -0.243128 -6.06213 0
M  V30 6304 H 618.69 0.189742 -4.87331 0
M  V30 6305 H 617.695 -2.10595 -5.07868 0
M  V30 6306 H 618.92 -2.53206 -6.3013 0
M  V30 6307 H 616.866 -0.302208 -6.55304 0
M  V30 6308 H 616.783 -1.84901 -7.3304 0
M  V30 6309 H 618.051 -0.740068 -7.75979 0
M  V30 6310 N 622.28 1.30327 -0.886154 0
M  V30 6311 C 623.228 2.30052 -0.343317 0
M  V30 6312 C 624.222 1.60212 0.550305 0
M  V30 6313 O 625.428 1.74674 0.434609 0
M  V30 6314 H 621.803 0.746306 -0.0923681 0
M  V30 6315 H 623.774 2.73294 -1.19804 0
M  V30 6316 C 622.523 3.45079 0.426107 0
M  V30 6317 H 621.846 3.99003 -0.25227 0
M  V30 6318 H 623.286 4.16931 0.771009 0
M  V30 6319 C 621.745 2.95195 1.62363 0
M  V30 6320 O 622.275 2.95323 2.723 0
M  V30 6321 N 620.481 2.51192 1.4612 0
M  V30 6322 H 620.028 2.51286 0.566832 0
M  V30 6323 H 619.986 2.18173 2.2638 0
M  V30 6324 N 623.758 0.647228 1.43697 0
M  V30 6325 C 625.005 0.158188 2.01881 0
M  V30 6326 C 625.333 -1.22573 1.51017 0
M  V30 6327 O 624.588 -1.83086 0.69122 0
M  V30 6328 C 624.887 0.111481 3.57226 0
M  V30 6329 C 624.553 1.43633 4.27411 0
M  V30 6330 C 623.215 1.79915 4.463 0
M  V30 6331 C 625.567 2.31011 4.67208 0
M  V30 6332 C 622.895 3.03251 5.02251 0
M  V30 6333 C 625.247 3.53633 5.24525 0
M  V30 6334 C 623.911 3.90118 5.41631 0
M  V30 6335 H 623.181 0.0578851 0.738736 0
M  V30 6336 H 625.828 0.836746 1.72252 0
M  V30 6337 H 624.133 -0.650507 3.86362 0
M  V30 6338 H 625.83 -0.283682 3.99995 0
M  V30 6339 H 622.42 1.14403 4.1305 0
M  V30 6340 H 626.604 2.04272 4.52313 0
M  V30 6341 H 621.86 3.31575 5.13681 0
M  V30 6342 H 626.034 4.21561 5.5431 0
M  V30 6343 H 623.661 4.85768 5.84751 0
M  V30 6344 N 625.236 -1.5273 0.388769 0
M  V30 6345 C 626.146 -2.30165 -0.453993 0
M  V30 6346 C 627.162 -1.37058 -1.07197 0
M  V30 6347 O 628.338 -1.70127 -1.0779 0
M  V30 6348 C 625.403 -3.09303 -1.56628 0
M  V30 6349 C 624.464 -4.18117 -0.973467 0
M  V30 6350 C 623.697 -4.93472 -2.03275 0
M  V30 6351 O 623.92 -4.68913 -3.24772 0
M  V30 6352 O 622.854 -5.78833 -1.65034 0
M  V30 6353 H 626.68 -3.03185 0.176816 0
M  V30 6354 H 624.265 -1.4862 0.152501 0
M  V30 6355 H 626.147 -3.58648 -2.21246 0
M  V30 6356 H 624.822 -2.39098 -2.18206 0
M  V30 6357 H 623.729 -3.7297 -0.290556 0
M  V30 6358 H 625.062 -4.90556 -0.401908 0
M  V30 6359 N 626.714 -0.118576 -1.57153 0
M  V30 6360 C 627.646 0.862247 -2.12363 0
M  V30 6361 C 628.659 1.23025 -1.06625 0
M  V30 6362 O 629.848 1.17927 -1.33998 0
M  V30 6363 C 626.948 2.16425 -2.60794 0
M  V30 6364 C 626.121 1.96801 -3.90626 0
M  V30 6365 C 625.18 3.10726 -4.2466 0
M  V30 6366 O 624.206 2.83659 -4.93484 0
M  V30 6367 N 625.408 4.37147 -3.81946 0
M  V30 6368 H 628.173 0.390564 -2.97144 0
M  V30 6369 H 625.734 0.0658591 -1.61766 0
M  V30 6370 H 627.726 2.91633 -2.80593 0
M  V30 6371 H 626.296 2.54943 -1.80895 0
M  V30 6372 H 625.516 1.05787 -3.7974 0
M  V30 6373 H 626.804 1.80993 -4.7552 0
M  V30 6374 H 626.202 4.62014 -3.26435 0
M  V30 6375 H 624.759 5.09229 -4.06853 0
M  V30 6376 N 628.193 1.56834 0.155195 0
M  V30 6377 C 629.609 1.51315 0.50755 0
M  V30 6378 C 629.809 0.825614 1.83809 0
M  V30 6379 O 628.865 0.39271 2.49427 0
M  V30 6380 C 630.178 2.96074 0.52542 0
M  V30 6381 C 631.726 3.06968 0.611505 0
M  V30 6382 C 632.201 4.53218 0.660115 0
M  V30 6383 N 633.692 4.5753 0.722564 0
M  V30 6384 C 634.427 5.68056 0.781023 0
M  V30 6385 N 633.923 6.88173 0.799327 0
M  V30 6386 N 635.716 5.56068 0.821278 0
M  V30 6387 H 627.867 1.9993 -0.717063 0
M  V30 6388 H 630.13 0.911507 -0.260496 0
M  V30 6389 H 629.836 3.49599 -0.383875 0
M  V30 6390 H 629.71 3.51587 1.36624 0
M  V30 6391 H 632.097 2.53468 1.51122 0
M  V30 6392 H 632.178 2.54513 -0.256306 0
M  V30 6393 H 631.822 5.07354 -0.23541 0
M  V30 6394 H 631.752 5.03447 1.5443 0
M  V30 6395 H 634.243 3.71054 0.716049 0
M  V30 6396 H 634.556 7.6816 0.845553 0
M  V30 6397 H 632.901 6.90751 0.767337 0
M  V30 6398 H 636.092 4.61142 0.804091 0
M  V30 6399 H 636.265 6.42223 0.863372 0
M  V30 6400 N 629.671 -0.424282 1.51781 0
M  V30 6401 C 630.919 -1.17028 1.64769 0
M  V30 6402 C 631.24 -1.91409 0.372523 0
M  V30 6403 O 630.51 -1.86091 -0.612108 0
M  V30 6404 H 629.09 -0.434992 0.607282 0
M  V30 6405 H 631.752 -0.485169 1.88765 0
M  V30 6406 H 630.848 -1.8927 2.4816 0
M  V30 6407 N 631.149 -1.42148 -0.680565 0
M  V30 6408 C 632.097 -1.45401 -1.81552 0
M  V30 6409 C 633.091 -0.33036 -1.66147 0
M  V30 6410 O 634.297 -0.503103 -1.72826 0
M  V30 6411 H 630.672 -0.455265 -0.59853 0
M  V30 6412 H 632.643 -2.41024 -1.75926 0
M  V30 6413 C 631.392 -1.36769 -3.19671 0
M  V30 6414 H 630.715 -2.22525 -3.32149 0
M  V30 6415 H 632.155 -1.43106 -3.9912 0
M  V30 6416 C 630.614 -0.0817752 -3.36801 0
M  V30 6417 O 631.144 0.867707 -3.92216 0
M  V30 6418 N 629.35 -0.000799811 -2.906 0
M  V30 6419 H 628.897 -0.774231 -2.4569 0
M  V30 6420 H 628.855 0.858961 -3.02439 0
M  V30 6421 N 632.627 0.916307 -1.28225 0
M  V30 6422 C 633.537 2.05165 -1.13775 0
M  V30 6423 C 634.553 1.73879 -0.0649418 0
M  V30 6424 O 635.729 1.99531 -0.273722 0
M  V30 6425 C 632.794 3.37385 -0.798267 0
M  V30 6426 C 631.855 3.82296 -1.95316 0
M  V30 6427 C 631.088 5.08206 -1.62978 0
M  V30 6428 O 631.311 5.6781 -0.542948 0
M  V30 6429 O 630.245 5.48768 -2.47261 0
M  V30 6430 H 634.071 2.20273 -2.09078 0
M  V30 6431 H 631.656 1.0373 -1.07519 0
M  V30 6432 H 633.538 4.16773 -0.62278 0
M  V30 6433 H 632.213 3.23458 0.125139 0
M  V30 6434 H 631.12 3.03746 -2.18378 0
M  V30 6435 H 632.453 4.00782 -2.85718 0
M  V30 6436 N 634.105 1.10431 1.1244 0
M  V30 6437 C 635.352 0.846717 1.83948 0
M  V30 6438 C 635.68 -0.627709 1.84093 0
M  V30 6439 O 634.935 -1.47876 1.28184 0
M  V30 6440 C 635.234 1.34022 3.3132 0
M  V30 6441 C 634.9 2.82606 3.51347 0
M  V30 6442 C 633.562 3.23182 3.56521 0
M  V30 6443 C 635.914 3.78356 3.58464 0
M  V30 6444 C 633.242 4.58258 3.66356 0
M  V30 6445 C 635.594 5.13234 3.69829 0
M  V30 6446 C 634.258 5.53384 3.73259 0
M  V30 6447 H 633.528 0.309836 0.673114 0
M  V30 6448 H 636.175 1.38091 1.32677 0
M  V30 6449 H 634.48 0.726047 3.85014 0
M  V30 6450 H 636.177 1.11739 3.85118 0
M  V30 6451 H 632.767 2.50212 3.47983 0
M  V30 6452 H 636.951 3.48115 3.53737 0
M  V30 6453 H 632.207 4.88787 3.67284 0
M  V30 6454 H 636.381 5.87272 3.74279 0
M  V30 6455 H 634.008 6.58045 3.80633 0
M  V30 6456 N 635.583 -1.29855 0.893053 0
M  V30 6457 C 636.546 -2.26183 0.370687 0
M  V30 6458 C 637.546 -1.53108 -0.491385 0
M  V30 6459 O 638.736 -1.71643 -0.297386 0
M  V30 6460 C 635.868 -3.37633 -0.470827 0
M  V30 6461 H 637.061 -2.73903 1.22135 0
M  V30 6462 H 634.614 -1.41183 0.67061 0
M  V30 6463 H 635.349 -2.95241 -1.34175 0
M  V30 6464 H 635.134 -3.91825 0.146784 0
M  V30 6465 H 636.624 -4.09313 -0.827825 0
M  V30 6466 N 637.061 -0.65484 -1.43351 0
M  V30 6467 C 638.477 -0.32255 -1.56307 0
M  V30 6468 C 638.677 1.17324 -1.63821 0
M  V30 6469 O 637.733 1.95813 -1.59417 0
M  V30 6470 C 639.046 -1.03533 -2.82314 0
M  V30 6471 C 640.594 -1.01574 -2.9606 0
M  V30 6472 C 641.069 -1.70945 -4.24902 0
M  V30 6473 N 642.56 -1.67716 -4.3177 0
M  V30 6474 C 643.295 -2.18265 -5.30234 0
M  V30 6475 N 642.791 -2.7711 -6.34966 0
M  V30 6476 N 644.584 -2.08756 -5.21898 0
M  V30 6477 H 636.735 -1.62549 -1.36717 0
M  V30 6478 H 638.998 -0.683676 -0.656727 0
M  V30 6479 H 638.704 -2.09045 -2.8283 0
M  V30 6480 H 638.578 -0.587913 -3.7259 0
M  V30 6481 H 640.965 0.0309834 -2.95084 0
M  V30 6482 H 641.046 -1.50186 -2.07069 0
M  V30 6483 H 640.69 -2.75574 -4.26639 0
M  V30 6484 H 640.62 -1.19797 -5.12793 0
M  V30 6485 H 643.111 -1.24777 -3.56706 0
M  V30 6486 H 643.424 -3.13353 -7.06421 0
M  V30 6487 H 641.769 -2.81171 -6.35585 0
M  V30 6488 H 644.96 -1.62488 -4.38994 0
M  V30 6489 H 645.133 -2.48459 -5.98475 0
M  V30 6490 N 638.539 1.52521 -0.396863 0
M  V30 6491 C 639.469 2.29582 0.425941 0
M  V30 6492 C 640.45 1.33281 1.05689 0
M  V30 6493 O 641.635 1.62181 1.06823 0
M  V30 6494 C 638.765 3.10821 1.54943 0
M  V30 6495 C 637.719 4.15069 1.04413 0
M  V30 6496 C 637.045 4.84578 2.26028 0
M  V30 6497 C 638.345 5.22191 0.106767 0
M  V30 6498 H 640.039 2.98612 -0.217045 0
M  V30 6499 H 637.585 1.43611 -0.105826 0
M  V30 6500 H 639.538 3.63492 2.13193 0
M  V30 6501 H 638.262 2.39538 2.22011 0
M  V30 6502 H 636.921 3.63389 0.484118 0
M  V30 6503 H 636.569 4.09835 2.91623 0
M  V30 6504 H 636.269 5.55043 1.92876 0
M  V30 6505 H 637.793 5.40056 2.84906 0
M  V30 6506 H 639.207 5.70176 0.597685 0
M  V30 6507 H 637.604 5.99947 -0.135352 0
M  V30 6508 H 638.674 4.77531 -0.842134 0
M  V30 6509 N 640.017 0.126909 1.57088 0
M  V30 6510 C 640.98 -0.806097 2.14557 0
M  V30 6511 C 641.98 -1.18918 1.08236 0
M  V30 6512 O 643.17 -1.11339 1.33975 0
M  V30 6513 C 640.302 -2.09116 2.69227 0
M  V30 6514 H 641.495 -0.306522 2.98329 0
M  V30 6515 H 639.048 -0.122393 1.5582 0
M  V30 6516 H 639.783 -2.63486 1.89065 0
M  V30 6517 H 639.568 -1.82588 3.46993 0
M  V30 6518 H 641.058 -2.75794 3.13572 0
M  V30 6519 N 641.495 -1.56914 -0.146875 0
M  V30 6520 C 642.442 -1.98275 -1.18134 0
M  V30 6521 C 643.412 -0.850367 -1.42681 0
M  V30 6522 O 644.597 -1.11244 -1.55014 0
M  V30 6523 C 641.737 -2.36861 -2.5098 0
M  V30 6524 C 640.85 -3.63391 -2.33605 0
M  V30 6525 C 639.985 -3.91079 -3.59486 0
M  V30 6526 C 639.024 -5.10879 -3.37149 0
M  V30 6527 N 638.161 -5.34577 -4.55161 0
M  V30 6528 H 643.001 -2.8645 -0.821622 0
M  V30 6529 H 640.538 -1.41718 -0.394248 0
M  V30 6530 H 642.496 -2.57262 -3.28439 0
M  V30 6531 H 641.126 -1.51766 -2.84898 0
M  V30 6532 H 640.178 -3.50766 -1.47199 0
M  V30 6533 H 641.49 -4.51007 -2.13059 0
M  V30 6534 H 640.644 -4.11979 -4.45374 0
M  V30 6535 H 639.383 -3.01885 -3.83036 0
M  V30 6536 H 638.388 -4.89853 -2.49649 0
M  V30 6537 H 639.613 -6.01626 -3.14997 0
M  V30 6538 H 637.559 -4.48337 -4.78884 0
M  V30 6539 H 637.476 -6.16463 -4.37618 0
M  V30 6540 H 638.744 -5.59975 -5.42263 0
M  V30 6541 N 642.974 0.416227 -1.52004 0
M  V30 6542 C 643.884 1.53147 -1.77717 0
M  V30 6543 C 644.9 1.609 -0.662368 0
M  V30 6544 O 646.076 1.77747 -0.946991 0
M  V30 6545 C 643.141 2.88948 -1.91598 0
M  V30 6546 C 642.202 2.9114 -3.15493 0
M  V30 6547 C 641.435 4.20464 -3.28703 0
M  V30 6548 O 641.658 5.13981 -2.47345 0
M  V30 6549 O 640.592 4.29368 -4.21813 0
M  V30 6550 H 644.418 1.34357 -2.72363 0
M  V30 6551 H 642.003 0.601373 -1.36762 0
M  V30 6552 H 643.885 3.69505 -2.02593 0
M  V30 6553 H 642.56 3.07821 -1.00141 0
M  V30 6554 H 641.467 2.09461 -3.09962 0
M  V30 6555 H 642.8 2.77216 -4.06709 0
M  V30 6556 N 644.452 1.42507 0.673017 0
M  V30 6557 C 645.382 1.48916 1.79851 0
M  V30 6558 C 646.363 0.345566 1.66553 0
M  V30 6559 O 647.548 0.560116 1.85947 0
M  V30 6560 C 644.678 1.39258 3.18158 0
M  V30 6561 C 643.632 2.51662 3.46194 0
M  V30 6562 C 642.958 2.27062 4.84094 0
M  V30 6563 C 644.258 3.93968 3.42909 0
M  V30 6564 H 645.952 2.43114 1.74745 0
M  V30 6565 H 643.498 1.17013 0.839288 0
M  V30 6566 H 645.451 1.42349 3.96629 0
M  V30 6567 H 644.175 0.415542 3.23946 0
M  V30 6568 H 642.834 2.47891 2.70084 0
M  V30 6569 H 642.482 1.27648 4.86534 0
M  V30 6570 H 642.182 3.02398 5.03815 0
M  V30 6571 H 643.706 2.31905 5.64847 0
M  V30 6572 H 645.12 3.99332 4.11347 0
M  V30 6573 H 643.517 4.6917 3.74165 0
M  V30 6574 H 644.587 4.20512 2.41449 0
M  V30 6575 N 645.93 -0.909495 1.28709 0
M  V30 6576 C 647.178 -1.65577 1.15882 0
M  V30 6577 C 647.499 -1.928 -0.292108 0
M  V30 6578 O 646.769 -1.54716 -1.20166 0
M  V30 6579 H 645.349 -0.613714 0.425869 0
M  V30 6580 H 648.011 -1.09108 1.61498 0
M  V30 6581 H 647.107 -2.61634 1.70159 0
M  V30 6582 O 647.447 -1.23171 -1.04456 0
M  V30 6583 H 648.138 -1.00158 -1.65795 0
M  V30 END ATOM
M  V30 BEGIN BOND
M  V30 END BOND
M  V30 END CTAB
M  END
$$$$
