drugbank_target|P20648 Potassium-transporting ATPase alpha chain 1 (DB00213; DB00338; DB00448; DB00736; DB01129; DB05351)
 OpenBabel12092119303D

  0  0  0     0  0            999 V3000
M  V30 BEGIN CTAB
M  V30 COUNTS 16072 16233 0 0 0
M  V30 BEGIN ATOM
M  V30 1 H -0.908 1.98254 -0.117106 0
M  V30 2 N 0 1.576 0 0
M  V30 3 C 0.933 2.03868 1.02534 0
M  V30 4 C 1.911 0.928543 1.3348 0
M  V30 5 O 3.095 1.19667 1.45644 0
M  V30 6 C 0.222 2.43627 2.35294 0
M  V30 7 C -0.732 3.65373 2.2001 0
M  V30 8 S 0.101 5.13292 1.52614 0
M  V30 9 C 1.257 5.56322 2.86805 0
M  V30 10 H 1.49 2.90518 0.631377 0
M  V30 11 H -0.977 1.52953 0.210867 0
M  V30 12 H 0.981 2.67203 3.11629 0
M  V30 13 H -0.358 1.57376 2.7183 0
M  V30 14 H -1.165 3.90944 3.18086 0
M  V30 15 H -1.563 3.418 1.51819 0
M  V30 16 H 0.729 5.58782 3.83104 0
M  V30 17 H 1.672 6.56266 2.65933 0
M  V30 18 H 2.08 4.83886 2.90714 0
M  V30 19 N 1.4781 -0.272755 1.55222 0
M  V30 20 C 2.7261 -1.00234 1.75492 0
M  V30 21 C 3.0471 -1.8681 0.5592 0
M  V30 22 O 2.3171 -1.91215 -0.425882 0
M  V30 23 H 0.8971 -0.373076 0.647166 0
M  V30 24 H 3.5591 -0.296926 1.92625 0
M  V30 25 H 2.6551 -1.63913 2.65592 0
M  V30 26 N 2.9562 -1.48159 -0.537278 0
M  V30 27 C 3.9032 -1.62138 -1.64256 0
M  V30 28 C 4.8732 -0.463668 -1.59497 0
M  V30 29 O 6.0582 -0.686241 -1.78032 0
M  V30 30 C 3.1982 -1.66028 -3.02537 0
M  V30 31 C 2.3112 -2.92855 -3.17585 0
M  V30 32 C 1.4462 -2.87952 -4.46382 0
M  V30 33 C 0.4852 -4.09516 -4.54932 0
M  V30 34 N -0.3778 -4.02733 -5.75109 0
M  V30 35 H 4.4622 -2.56529 -1.51647 0
M  V30 36 H 1.9992 -1.27224 -0.738414 0
M  V30 37 H 3.9572 -1.66265 -3.82638 0
M  V30 38 H 2.5872 -0.751331 -3.13934 0
M  V30 39 H 1.6392 -3.02395 -2.30784 0
M  V30 40 H 2.9512 -3.82822 -3.19764 0
M  V30 41 H 2.1052 -2.8655 -5.34765 0
M  V30 42 H 0.8442 -1.95702 -4.46712 0
M  V30 43 H -0.1508 -4.11201 -3.64957 0
M  V30 44 H 1.0742 -5.02917 -4.56346 0
M  V30 45 H -0.9798 -3.13299 -5.76351 0
M  V30 46 H -1.0628 -4.86397 -5.78752 0
M  V30 47 H 0.2052 -4.05379 -6.65799 0
M  V30 48 N 4.4343 0.785586 -1.36625 0
M  V30 49 C 5.3973 1.87999 -1.31107 0
M  V30 50 C 6.3973 1.59316 -0.217959 0
M  V30 51 O 7.5873 1.67656 -0.472977 0
M  V30 52 C 4.7193 3.24861 -1.03334 0
M  V30 53 H 5.9123 1.94307 -2.2844 0
M  V30 54 H 3.4653 0.983813 -1.21453 0
M  V30 55 H 4.2003 3.24235 -0.0647432 0
M  V30 56 H 3.9853 3.4707 -1.82441 0
M  V30 57 H 5.4753 4.04929 -1.02088 0
M  V30 58 N 5.9124 1.20967 1.01018 0
M  V30 59 C 6.8224 0.980157 2.13143 0
M  V30 60 C 7.8384 -0.0660665 1.73875 0
M  V30 61 O 9.0144 0.122821 2.01025 0
M  V30 62 C 6.0794 0.54216 3.42435 0
M  V30 63 C 5.1404 1.65999 3.95908 0
M  V30 64 C 4.3734 1.2428 5.19028 0
M  V30 65 O 4.5964 0.114196 5.70286 0
M  V30 66 O 3.5304 2.05271 5.65816 0
M  V30 67 H 7.3564 1.91913 2.35379 0
M  V30 68 H 4.9414 0.994099 1.11526 0
M  V30 69 H 6.8234 0.30744 4.20277 0
M  V30 70 H 5.4984 -0.36815 3.216 0
M  V30 71 H 4.4054 1.94906 3.19316 0
M  V30 72 H 5.7384 2.54753 4.21143 0
M  V30 73 N 7.3905 -1.2043 1.01659 0
M  V30 74 C 8.3385 -2.25249 0.580143 0
M  V30 75 C 9.3325 -1.65057 -0.381115 0
M  V30 76 O 10.5385 -1.78241 -0.251039 0
M  V30 77 H 6.9135 -0.732695 0.169299 0
M  V30 78 H 8.8845 -2.59389 1.47512 0
M  V30 79 C 7.6335 -3.47638 -0.065788 0
M  V30 80 H 6.9565 -3.94233 0.664874 0
M  V30 81 H 8.3965 -4.2268 -0.334282 0
M  V30 82 C 6.8555 -3.10447 -1.3086 0
M  V30 83 O 7.3855 -3.21981 -2.4019 0
M  V30 84 N 5.5915 -2.64996 -1.1927 0
M  V30 85 H 5.1385 -2.55811 -0.303064 0
M  V30 86 H 5.0965 -2.40482 -2.02523 0
M  V30 87 N 8.8686 -0.792821 -1.36206 0
M  V30 88 C 10.0986 -0.378275 -2.03107 0
M  V30 89 C 10.5066 1.01119 -1.59911 0
M  V30 90 O 9.8496 1.66052 -0.785658 0
M  V30 91 C 9.9116 -0.366535 -3.57627 0
M  V30 92 C 9.5756 -1.70416 -4.24037 0
M  V30 93 C 10.5726 -2.6602 -4.46687 0
M  V30 94 C 8.2576 -1.98439 -4.6144 0
M  V30 95 C 10.2516 -3.8784 -5.05825 0
M  V30 96 C 7.9386 -3.20525 -5.20295 0
M  V30 97 C 8.9366 -4.15044 -5.42427 0
M  V30 98 O 8.6246 -5.34978 -6.00045 0
M  V30 99 H 8.3566 -0.153543 -0.658332 0
M  V30 100 H 10.9106 -1.07383 -1.75094 0
M  V30 101 H 9.1406 0.385539 -3.84773 0
M  V30 102 H 10.8296 0.0238088 -4.05893 0
M  V30 103 H 11.5956 -2.45658 -4.18183 0
M  V30 104 H 7.4746 -1.25686 -4.43536 0
M  V30 105 H 11.0186 -4.61628 -5.23015 0
M  V30 106 H 6.9156 -3.40764 -5.48225 0
M  V30 107 H 7.6836 -5.36088 -6.18508 0
M  V30 108 N 10.3467 1.47872 -0.545128 0
M  V30 109 C 11.2567 2.33633 0.212746 0
M  V30 110 C 12.2727 1.4744 0.923983 0
M  V30 111 O 13.4487 1.80393 0.895572 0
M  V30 112 C 10.5137 3.23884 1.23693 0
M  V30 113 C 9.5747 4.25961 0.534417 0
M  V30 114 C 8.8077 5.11899 1.5098 0
M  V30 115 O 9.0307 5.00077 2.7437 0
M  V30 116 O 7.9647 5.92831 1.0409 0
M  V30 117 H 11.7907 2.99714 -0.490416 0
M  V30 118 H 9.3757 1.46235 -0.305871 0
M  V30 119 H 11.2577 3.79666 1.82843 0
M  V30 120 H 9.9327 2.60446 1.92222 0
M  V30 121 H 8.8397 3.73972 -0.0979679 0
M  V30 122 H 10.1727 4.92079 -0.109213 0
M  V30 123 N 11.8248 0.280983 1.55075 0
M  V30 124 C 12.7548 -0.597469 2.25727 0
M  V30 125 C 13.7358 -1.15417 1.24952 0
M  V30 126 O 14.9208 -1.18722 1.53684 0
M  V30 127 C 12.0508 -1.7789 2.98283 0
M  V30 128 C 11.0048 -1.35347 4.06036 0
M  V30 129 C 10.3308 -2.61846 4.66198 0
M  V30 130 C 11.6308 -0.499354 5.19907 0
M  V30 131 H 13.3248 -0.00824265 2.99399 0
M  V30 132 H 10.8708 -0.0025244 1.44 0
M  V30 133 H 12.8238 -2.39937 3.46422 0
M  V30 134 H 11.5478 -2.39405 2.22155 0
M  V30 135 H 10.2068 -0.756156 3.58717 0
M  V30 136 H 9.8548 -3.21632 3.86732 0
M  V30 137 H 9.5548 -2.3409 5.38958 0
M  V30 138 H 11.0788 -3.24732 5.1709 0
M  V30 139 H 12.4928 -1.02498 5.64063 0
M  V30 140 H 10.8898 -0.316424 5.99265 0
M  V30 141 H 11.9598 0.480459 4.82514 0
M  V30 142 N 13.3029 -1.57598 0.00835791 0
M  V30 143 C 14.5329 -1.94931 -0.684496 0
M  V30 144 C 14.9409 -0.882233 -1.67372 0
M  V30 145 O 14.2839 0.146621 -1.83114 0
M  V30 146 C 14.3459 -3.283 -1.4649 0
M  V30 147 C 14.0099 -4.52548 -0.63634 0
M  V30 148 C 15.0069 -5.19839 0.0795586 0
M  V30 149 C 12.6919 -4.98942 -0.579849 0
M  V30 150 C 14.6859 -6.3183 0.840843 0
M  V30 151 C 12.3729 -6.10819 0.185155 0
M  V30 152 C 13.3709 -6.77121 0.894227 0
M  V30 153 O 13.0589 -7.86853 1.64673 0
M  V30 154 H 12.7909 -0.647249 -0.19505 0
M  V30 155 H 15.3449 -2.05318 0.0581272 0
M  V30 156 H 13.5749 -3.14345 -2.2522 0
M  V30 157 H 15.2639 -3.50685 -2.04389 0
M  V30 158 H 16.0299 -4.84979 0.0451202 0
M  V30 159 H 11.9089 -4.47155 -1.1213 0
M  V30 160 H 15.4529 -6.83513 1.39483 0
M  V30 161 H 11.3499 -6.4512 0.221384 0
M  V30 162 H 12.1179 -8.03412 1.56432 0
M  V30 163 N 14.781 0.264519 -1.55364 0
M  V30 164 C 16.006 1.01726 -1.80739 0
M  V30 165 C 16.431 1.78836 -0.583044 0
M  V30 166 O 15.789 1.75167 0.467566 0
M  V30 167 C 15.837 1.94482 -3.03659 0
M  V30 168 O 14.941 3.03386 -2.7934 0
M  V30 169 H 14.282 0.290395 -0.597132 0
M  V30 170 H 16.812 0.290854 -2.02522 0
M  V30 171 H 16.822 2.36278 -3.32621 0
M  V30 172 H 15.497 1.37772 -3.92418 0
M  V30 173 H 14.074 2.65844 -2.61498 0
M  V30 174 N 16.2591 1.48442 0.529413 0
M  V30 175 C 17.5051 1.5672 1.28711 0
M  V30 176 C 17.8381 0.2406 1.92704 0
M  V30 177 O 17.1131 -0.753454 1.79313 0
M  V30 178 C 17.3961 2.70587 2.37603 0
M  V30 179 C 17.2491 4.12953 1.78297 0
M  V30 180 C 18.5681 2.80212 3.39366 0
M  V30 181 H 15.6871 0.570474 0.466613 0
M  V30 182 H 18.3291 1.80617 0.589706 0
M  V30 183 H 16.4791 2.50342 2.97088 0
M  V30 184 H 18.1511 4.44639 1.22858 0
M  V30 185 H 16.3941 4.19927 1.0883 0
M  V30 186 H 17.0651 4.88448 2.57144 0
M  V30 187 H 19.5411 2.98553 2.89836 0
M  V30 188 H 18.4171 3.61611 4.12951 0
M  V30 189 H 18.6781 1.88393 3.99951 0
M  V30 190 N 17.7372 -0.778329 1.37039 0
M  V30 191 C 18.6472 -1.92253 1.34446 0
M  V30 192 C 19.6632 -1.72267 0.244991 0
M  V30 193 O 20.8392 -1.95615 0.479258 0
M  V30 194 C 17.9042 -3.27282 1.144 0
M  V30 195 C 16.9652 -3.59969 2.33925 0
M  V30 196 C 16.1982 -4.88555 2.14825 0
M  V30 197 O 16.4212 -5.59113 1.12912 0
M  V30 198 O 15.3552 -5.20153 3.02861 0
M  V30 199 H 19.1812 -1.97392 2.30803 0
M  V30 200 H 16.7662 -0.920154 1.17701 0
M  V30 201 H 18.6482 -4.08062 1.05182 0
M  V30 202 H 17.3232 -3.23011 0.211124 0
M  V30 203 H 16.2302 -2.7945 2.48714 0
M  V30 204 H 17.5632 -3.68976 3.25757 0
M  V30 205 N 19.2153 -1.21501 -1.00376 0
M  V30 206 C 20.1453 -0.999478 -2.11028 0
M  V30 207 C 21.1263 0.0759671 -1.6993 0
M  V30 208 O 22.3113 -0.0841106 -1.94018 0
M  V30 209 C 19.4413 -0.564709 -3.42678 0
M  V30 210 C 18.3953 -1.58486 -3.97576 0
M  V30 211 C 17.7213 -1.00628 -5.25146 0
M  V30 212 C 19.0213 -2.97204 -4.29496 0
M  V30 213 H 20.7153 -1.92495 -2.29317 0
M  V30 214 H 18.2613 -0.92693 -1.102 0
M  V30 215 H 20.2143 -0.401091 -4.19487 0
M  V30 216 H 18.9383 0.396411 -3.24185 0
M  V30 217 H 17.5973 -1.73606 -3.22888 0
M  V30 218 H 17.2453 -0.0368439 -5.02987 0
M  V30 219 H 16.9453 -1.68771 -5.62841 0
M  V30 220 H 18.4693 -0.854015 -6.04598 0
M  V30 221 H 19.8833 -2.8552 -4.97143 0
M  V30 222 H 18.2803 -3.62372 -4.78338 0
M  V30 223 H 19.3503 -3.47956 -3.3772 0
M  V30 224 N 20.6934 1.19889 -1.02296 0
M  V30 225 C 21.9414 1.89046 -0.714558 0
M  V30 226 C 22.2624 1.79636 0.758681 0
M  V30 227 O 21.5324 1.20292 1.54618 0
M  V30 228 H 20.1124 0.699802 -0.261317 0
M  V30 229 H 22.7744 1.45574 -1.29592 0
M  V30 230 H 21.8704 2.95524 -1.0036 0
M  V30 231 N 22.1715 0.800033 1.35784 0
M  V30 232 C 23.5825 0.439142 1.81462 0
M  V30 233 C 23.9335 -1.03813 1.66485 0
M  V30 234 O 23.0585 -1.80626 1.19177 0
M  V30 235 C 23.6535 0.790314 3.29453 0
M  V30 236 C 22.2125 0.482111 3.733 0
M  V30 237 C 21.3595 1.01938 2.57883 0
M  V30 238 H 24.3105 0.992254 1.23855 0
M  V30 239 H 24.3315 0.0853677 3.80404 0
M  V30 240 H 23.8435 1.86554 3.40322 0
M  V30 241 H 21.9445 -0.584652 3.67984 0
M  V30 242 H 22.0575 1.01015 4.6833 0
M  V30 243 H 20.4215 0.442043 2.50835 0
M  V30 244 H 21.2045 2.10059 2.71533 0
M  V30 245 N 23.6496 -1.47581 0.552962 0
M  V30 246 C 24.8976 -2.02082 0.0272703 0
M  V30 247 C 25.2186 -1.4301 -1.32563 0
M  V30 248 O 24.4886 -0.603745 -1.86365 0
M  V30 249 H 23.0686 -0.746966 0.00709182 0
M  V30 250 H 25.7306 -1.81033 0.722008 0
M  V30 251 H 24.8266 -3.12034 -0.0639951 0
M  V30 252 N 25.1277 -0.289203 -1.54924 0
M  V30 253 C 26.5387 0.205791 -1.85562 0
M  V30 254 C 26.8897 1.54351 -1.2112 0
M  V30 255 O 26.0147 2.10435 -0.504601 0
M  V30 256 C 26.6097 0.380177 -3.3666 0
M  V30 257 C 25.1687 0.819395 -3.67373 0
M  V30 258 C 24.3157 -0.079159 -2.77187 0
M  V30 259 H 27.2667 -0.510577 -1.50262 0
M  V30 260 H 27.2877 1.21659 -3.60526 0
M  V30 261 H 26.7997 -0.593589 -3.83534 0
M  V30 262 H 24.9007 1.80413 -3.26009 0
M  V30 263 H 25.0137 0.646957 -4.74712 0
M  V30 264 H 23.3777 0.439565 -2.50878 0
M  V30 265 H 24.1607 -1.04906 -3.26878 0
M  V30 266 N 26.6058 1.57591 -0.0167156 0
M  V30 267 C 27.8538 1.90906 0.663285 0
M  V30 268 C 28.1748 0.892509 1.73376 0
M  V30 269 O 27.4448 -0.0677623 1.95783 0
M  V30 270 H 26.0248 0.704637 0.247983 0
M  V30 271 H 28.6868 1.94803 -0.0615909 0
M  V30 272 H 27.7828 2.9116 1.12393 0
M  V30 273 N 28.0839 -0.256276 1.55502 0
M  V30 274 C 29.3319 -0.983672 1.76545 0
M  V30 275 C 29.6529 -1.86206 0.578982 0
M  V30 276 O 28.9229 -1.91656 -0.405577 0
M  V30 277 H 27.5029 -0.366191 0.651086 0
M  V30 278 H 30.1649 -0.276479 1.92929 0
M  V30 279 H 29.2609 -1.61087 2.67315 0
M  V30 280 N 29.562 -1.4872 -0.521534 0
M  V30 281 C 30.839 -1.4766 -1.2828 0
M  V30 282 C 31.219 -0.19292 -2.10217 0
M  V30 283 O 30.567 0.825193 -2.13079 0
M  V30 284 C 30.777 -2.74358 -2.15705 0
M  V30 285 C 32.125 -3.23028 -2.75569 0
M  V30 286 O 33.149 -2.75333 -2.25987 0
M  V30 287 O 32.008 -4.0604 -3.65778 0
M  V30 288 H 29.102 -0.590085 -0.579421 0
M  V30 289 H 31.648 -1.60963 -0.537492 0
M  V30 290 H 30.42 -3.59292 -1.54999 0
M  V30 291 H 30.043 -2.63816 -2.97467 0
M  V30 292 N 31.0401 0.771051 -1.3745 0
M  V30 293 C 31.9731 1.89166 -1.27638 0
M  V30 294 C 32.9511 1.61842 -0.156782 0
M  V30 295 O 34.1351 1.85569 -0.331111 0
M  V30 296 C 31.2621 3.24405 -0.973621 0
M  V30 297 C 30.3081 3.70638 -2.1102 0
M  V30 298 S 31.1411 3.84228 -3.73 0
M  V30 299 C 32.2971 5.22313 -3.44876 0
M  V30 300 H 32.5301 1.972 -2.22485 0
M  V30 301 H 30.0631 0.932224 -1.23081 0
M  V30 302 H 32.0211 4.02514 -0.805766 0
M  V30 303 H 30.6821 3.14071 -0.0426279 0
M  V30 304 H 29.8751 4.68685 -1.85338 0
M  V30 305 H 29.4771 2.99632 -2.23822 0
M  V30 306 H 31.7691 6.07505 -2.99908 0
M  V30 307 H 32.7121 5.53008 -4.42253 0
M  V30 308 H 33.1201 4.90284 -2.79789 0
M  V30 309 N 32.5182 1.22032 0.997298 0
M  V30 310 C 33.4812 0.987909 2.06816 0
M  V30 311 C 34.4812 -0.0440084 1.6074 0
M  V30 312 O 35.6712 0.194053 1.73116 0
M  V30 313 C 32.8032 0.49132 3.37341 0
M  V30 314 H 33.9962 1.93803 2.28868 0
M  V30 315 H 31.5492 1.03838 1.16822 0
M  V30 316 H 32.2842 -0.463364 3.20973 0
M  V30 317 H 32.0692 1.23575 3.72118 0
M  V30 318 H 33.5592 0.348824 4.16141 0
M  V30 319 N 33.9963 -1.19345 1.0293 0
M  V30 320 C 34.9593 -2.20793 0.615069 0
M  V30 321 C 35.9593 -1.57553 -0.321533 0
M  V30 322 O 37.1493 -1.73862 -0.108483 0
M  V30 323 C 34.2813 -3.40754 -0.0999222 0
M  V30 324 H 35.4743 -2.58955 1.51269 0
M  V30 325 H 33.0273 -1.3303 0.820534 0
M  V30 326 H 33.7623 -3.0811 -1.01187 0
M  V30 327 H 33.5473 -3.87889 0.57309 0
M  V30 328 H 35.0373 -4.15898 -0.376645 0
M  V30 329 N 35.4744 -0.807222 -1.35358 0
M  V30 330 C 36.4214 -0.216037 -2.29787 0
M  V30 331 C 37.3914 0.650278 -1.52842 0
M  V30 332 O 38.5764 0.595227 -1.81278 0
M  V30 333 C 35.7164 0.628893 -3.39321 0
M  V30 334 C 34.8294 -0.257927 -4.31229 0
M  V30 335 C 33.9644 0.595069 -5.27856 0
M  V30 336 C 33.0034 -0.292111 -6.11403 0
M  V30 337 N 32.1404 0.520895 -7.00165 0
M  V30 338 H 36.9804 -1.02671 -2.79755 0
M  V30 339 H 34.5174 -0.517839 -1.37684 0
M  V30 340 H 36.4754 1.13393 -4.01494 0
M  V30 341 H 35.1054 1.40482 -2.90628 0
M  V30 342 H 34.1574 -0.881076 -3.70056 0
M  V30 343 H 35.4694 -0.940759 -4.89848 0
M  V30 344 H 34.6234 1.16522 -5.95405 0
M  V30 345 H 33.3624 1.31146 -4.69736 0
M  V30 346 H 32.3674 -0.874525 -5.428 0
M  V30 347 H 33.5924 -1.00638 -6.71602 0
M  V30 348 H 31.5384 1.22125 -6.44532 0
M  V30 349 H 31.4554 -0.103877 -7.55929 0
M  V30 350 H 32.7234 1.0743 -7.72062 0
M  V30 351 N 36.9525 1.47285 -0.560781 0
M  V30 352 C 37.8855 2.27009 0.232821 0
M  V30 353 C 38.8635 1.34273 0.917039 0
M  V30 354 O 40.0475 1.63659 0.935315 0
M  V30 355 C 37.1745 3.11406 1.33206 0
M  V30 356 C 36.2205 4.19746 0.756019 0
M  V30 357 S 37.0535 5.34003 -0.400165 0
M  V30 358 C 38.2095 6.21964 0.700805 0
M  V30 359 H 38.4425 2.93971 -0.443683 0
M  V30 360 H 35.9755 1.50446 -0.347181 0
M  V30 361 H 37.9335 3.60601 1.96156 0
M  V30 362 H 36.5945 2.438 1.98041 0
M  V30 363 H 35.7875 4.78541 1.5816 0
M  V30 364 H 35.3895 3.73451 0.202619 0
M  V30 365 H 37.6815 6.58529 1.59202 0
M  V30 366 H 38.6245 7.07941 0.150126 0
M  V30 367 H 39.0325 5.5566 0.995083 0
M  V30 368 N 38.4306 0.297415 1.54768 0
M  V30 369 C 39.6556 -0.318435 2.04941 0
M  V30 370 C 40.0806 -1.4701 1.17345 0
M  V30 371 O 39.4386 -1.80436 0.176758 0
M  V30 372 C 39.4866 -0.755749 3.52592 0
M  V30 373 O 38.5906 -1.86088 3.68028 0
M  V30 374 H 37.9316 -0.062421 0.661059 0
M  V30 375 H 40.4616 0.438215 1.99852 0
M  V30 376 H 40.4716 -1.04552 3.94376 0
M  V30 377 H 39.1466 0.0867233 4.1581 0
M  V30 378 H 37.7236 -1.57193 3.38149 0
M  V30 379 N 39.9087 -1.5758 0.0250728 0
M  V30 380 C 40.8557 -2.09973 -0.958129 0
M  V30 381 C 41.8257 -1.00085 -1.3256 0
M  V30 382 O 43.0107 -1.27481 -1.41962 0
M  V30 383 C 40.1507 -2.62812 -2.2366 0
M  V30 384 C 39.2637 -3.86693 -1.92594 0
M  V30 385 C 38.3987 -4.27941 -3.14707 0
M  V30 386 C 37.4377 -5.44591 -2.79442 0
M  V30 387 N 36.5747 -5.81014 -3.94167 0
M  V30 388 H 41.4147 -2.937 -0.504428 0
M  V30 389 H 38.9517 -1.45172 -0.237392 0
M  V30 390 H 40.9097 -2.91536 -2.98434 0
M  V30 391 H 39.5397 -1.81922 -2.66654 0
M  V30 392 H 38.5917 -3.64723 -1.0808 0
M  V30 393 H 39.9037 -4.71547 -1.62619 0
M  V30 394 H 39.0577 -4.58079 -3.97804 0
M  V30 395 H 37.7967 -3.41845 -3.4784 0
M  V30 396 H 36.8017 -5.1415 -1.94755 0
M  V30 397 H 38.0267 -6.32382 -2.47528 0
M  V30 398 H 35.9727 -4.97874 -4.2715 0
M  V30 399 H 35.8897 -6.60498 -3.67801 0
M  V30 400 H 37.1577 -6.15756 -4.7798 0
M  V30 401 N 41.3868 0.248026 -1.55636 0
M  V30 402 C 42.3338 1.30707 -1.90222 0
M  V30 403 C 43.3038 1.47881 -0.756332 0
M  V30 404 O 44.4888 1.61883 -1.00988 0
M  V30 405 C 41.6288 2.65769 -2.20138 0
M  V30 406 C 40.7418 2.56612 -3.47526 0
M  V30 407 C 39.8768 3.8402 -3.67017 0
M  V30 408 C 38.9158 3.69476 -4.8801 0
M  V30 409 N 38.0528 4.88774 -5.04029 0
M  V30 410 H 42.8928 1.00512 -2.80538 0
M  V30 411 H 40.4298 0.485055 -1.38873 0
M  V30 412 H 42.3878 3.44386 -2.35487 0
M  V30 413 H 41.0178 2.94115 -1.33027 0
M  V30 414 H 40.0698 1.69571 -3.40514 0
M  V30 415 H 41.3818 2.41774 -4.36287 0
M  V30 416 H 40.5358 4.7108 -3.8232 0
M  V30 417 H 39.2748 4.01754 -2.76487 0
M  V30 418 H 38.2798 2.80799 -4.72686 0
M  V30 419 H 39.5048 3.53238 -5.8 0
M  V30 420 H 37.4508 5.0687 -4.16435 0
M  V30 421 H 37.3678 4.76562 -5.86877 0
M  V30 422 H 38.6358 5.77335 -5.23741 0
M  V30 423 N 42.8649 1.48995 0.513639 0
M  V30 424 C 43.8119 1.6473 1.61656 0
M  V30 425 C 44.7819 0.488984 1.58739 0
M  V30 426 O 45.9669 0.714478 1.76918 0
M  V30 427 C 43.1069 1.7082 2.99858 0
M  V30 428 C 42.2199 2.9787 3.12885 0
M  V30 429 C 41.3549 2.95017 4.41744 0
M  V30 430 C 40.3939 4.16702 4.48359 0
M  V30 431 N 39.5309 4.11832 5.68629 0
M  V30 432 H 44.3709 2.58909 1.47547 0
M  V30 433 H 41.9079 1.28382 0.71808 0
M  V30 434 H 43.8659 1.72331 3.79944 0
M  V30 435 H 42.4959 0.801181 3.12699 0
M  V30 436 H 41.5479 3.06029 2.25944 0
M  V30 437 H 42.8599 3.8786 3.13633 0
M  V30 438 H 42.0139 2.95021 5.30139 0
M  V30 439 H 40.7529 2.02784 4.43542 0
M  V30 440 H 39.7579 4.16955 3.58369 0
M  V30 441 H 40.9829 5.10113 4.48287 0
M  V30 442 H 38.9289 3.22428 5.71293 0
M  V30 443 H 38.8459 4.95543 5.7094 0
M  V30 444 H 40.1139 4.1592 6.59266 0
M  V30 445 N 44.343 -0.763751 1.37857 0
M  V30 446 C 45.29 -1.87726 1.34267 0
M  V30 447 C 46.26 -1.64807 0.206879 0
M  V30 448 O 47.445 -1.86613 0.397508 0
M  V30 449 C 44.585 -3.24896 1.16346 0
M  V30 450 C 43.698 -3.59716 2.39225 0
M  V30 451 C 42.833 -4.86137 2.14114 0
M  V30 452 C 41.872 -5.13711 3.32817 0
M  V30 453 N 41.009 -6.31323 3.07206 0
M  V30 454 H 45.849 -1.90129 2.29466 0
M  V30 455 H 43.386 -0.929433 1.14017 0
M  V30 456 H 45.344 -4.04036 1.03975 0
M  V30 457 H 43.974 -3.21847 0.247909 0
M  V30 458 H 43.026 -2.75498 2.62307 0
M  V30 459 H 44.338 -3.76027 3.27728 0
M  V30 460 H 43.492 -5.73198 1.9882 0
M  V30 461 H 42.231 -4.71945 1.22961 0
M  V30 462 H 41.236 -4.25123 3.48641 0
M  V30 463 H 42.461 -5.29807 4.24832 0
M  V30 464 H 40.407 -6.18474 2.1869 0
M  V30 465 H 40.324 -6.48087 3.89254 0
M  V30 466 H 41.592 -7.213 2.95546 0
M  V30 467 N 45.8211 -1.22559 -0.990812 0
M  V30 468 C 46.7841 -0.998863 -2.0629 0
M  V30 469 C 47.7841 0.0354834 -1.60761 0
M  V30 470 O 48.9741 -0.203231 -1.7301 0
M  V30 471 C 46.1061 -0.509203 -3.37076 0
M  V30 472 H 47.2991 -1.95014 -2.27837 0
M  V30 473 H 44.8521 -1.04456 -1.16269 0
M  V30 474 H 45.5871 0.446335 -3.21214 0
M  V30 475 H 45.3721 -1.25547 -3.71457 0
M  V30 476 H 46.8621 -0.370888 -4.1595 0
M  V30 477 N 47.2992 1.18797 -1.03562 0
M  V30 478 C 48.5472 1.88278 -0.734569 0
M  V30 479 C 48.8682 1.8043 0.739586 0
M  V30 480 O 48.1382 1.21925 1.53333 0
M  V30 481 H 46.7182 0.696991 -0.268725 0
M  V30 482 H 49.3802 1.44192 -1.31129 0
M  V30 483 H 48.4762 2.94443 -1.03489 0
M  V30 484 N 48.7773 0.814389 1.34928 0
M  V30 485 C 50.0253 0.397636 1.9815 0
M  V30 486 C 50.3463 -1.04069 1.64908 0
M  V30 487 O 49.6163 -1.72121 0.93548 0
M  V30 488 H 48.1963 0.144043 0.732981 0
M  V30 489 H 50.8583 1.04195 1.6471 0
M  V30 490 H 49.9543 0.509688 3.0791 0
M  V30 491 N 50.2554 -1.46986 0.568584 0
M  V30 492 C 51.5034 -2.02041 0.0487022 0
M  V30 493 C 51.8244 -1.44408 -1.31039 0
M  V30 494 O 51.0944 -0.623477 -1.85714 0
M  V30 495 H 49.6744 -0.746849 0.015014 0
M  V30 496 H 52.3364 -1.80257 0.741168 0
M  V30 497 H 51.4324 -3.12085 -0.0308961 0
M  V30 498 N 51.7335 -0.305618 -1.54608 0
M  V30 499 C 52.9815 0.301701 -1.99835 0
M  V30 500 C 53.3025 1.54054 -1.19551 0
M  V30 501 O 52.5725 1.93702 -0.292658 0
M  V30 502 H 51.1525 0.114468 -0.738178 0
M  V30 503 H 53.8145 -0.418016 -1.90364 0
M  V30 504 H 52.9105 0.570548 -3.06841 0
M  V30 505 N 53.2116 1.57565 -0.0334293 0
M  V30 506 C 54.4596 1.91598 0.642999 0
M  V30 507 C 54.7806 0.910847 1.7242 0
M  V30 508 O 54.0506 -0.0469931 1.95844 0
M  V30 509 H 52.6306 0.707228 0.240496 0
M  V30 510 H 55.2926 1.94726 -0.0822488 0
M  V30 511 H 54.3886 2.92336 1.09298 0
M  V30 512 N 54.6897 -0.239769 1.55765 0
M  V30 513 C 55.6367 -1.29696 1.90913 0
M  V30 514 C 56.6067 -1.47478 0.764164 0
M  V30 515 O 57.7917 -1.61345 1.01845 0
M  V30 516 C 54.9317 -2.64598 2.21544 0
M  V30 517 C 54.0447 -2.54765 3.48882 0
M  V30 518 C 53.1797 -3.82069 3.69049 0
M  V30 519 C 52.2187 -3.66883 4.89963 0
M  V30 520 N 51.3557 -4.86094 5.06614 0
M  V30 521 H 56.1957 -0.990224 2.81067 0
M  V30 522 H 53.7327 -0.477684 1.39128 0
M  V30 523 H 55.6907 -3.43132 2.3731 0
M  V30 524 H 54.3207 -2.93405 1.34585 0
M  V30 525 H 53.3727 -1.67763 3.41409 0
M  V30 526 H 54.6847 -2.39457 4.37563 0
M  V30 527 H 53.8387 -4.69046 3.84812 0
M  V30 528 H 52.5777 -4.00282 2.78614 0
M  V30 529 H 51.5827 -2.78289 4.74168 0
M  V30 530 H 52.8077 -3.50157 5.81865 0
M  V30 531 H 50.7537 -5.04655 4.19117 0
M  V30 532 H 50.6707 -4.73443 5.89396 0
M  V30 533 H 51.9387 -5.74549 5.26795 0
M  V30 534 N 56.1678 -1.49265 -0.50573 0
M  V30 535 C 57.5838 -1.35923 -0.836486 0
M  V30 536 C 57.7838 -0.388704 -1.97715 0
M  V30 537 O 56.8398 0.181336 -2.51848 0
M  V30 538 C 58.1528 -2.76531 -1.18115 0
M  V30 539 C 59.7008 -2.85197 -1.28964 0
M  V30 540 C 60.1758 -4.26561 -1.66761 0
M  V30 541 N 61.6668 -4.2935 -1.73819 0
M  V30 542 C 62.4018 -5.35693 -2.045 0
M  V30 543 N 61.8978 -6.52287 -2.33438 0
M  V30 544 N 63.6908 -5.23105 -2.05711 0
M  V30 545 H 55.8418 -2.10965 0.246519 0
M  V30 546 H 58.1048 -0.9468 0.0476887 0
M  V30 547 H 57.8108 -3.49226 -0.416398 0
M  V30 548 H 57.6848 -3.11599 -2.1257 0
M  V30 549 H 60.0718 -2.12742 -2.04511 0
M  V30 550 H 60.1528 -2.53718 -0.325704 0
M  V30 551 H 59.7968 -4.99541 -0.917656 0
M  V30 552 H 59.7268 -4.55502 -2.64246 0
M  V30 553 H 62.2178 -3.4526 -1.53635 0
M  V30 554 H 62.5308 -7.29158 -2.56024 0
M  V30 555 H 60.8758 -6.55521 -2.30905 0
M  V30 556 H 64.0668 -4.31026 -1.82577 0
M  V30 557 H 64.2398 -6.06078 -2.29289 0
M  V30 558 N 57.6459 0.756429 -1.3826 0
M  V30 559 C 58.5929 1.87011 -1.35261 0
M  V30 560 C 59.5629 1.64695 -0.215616 0
M  V30 561 O 60.7479 1.864 -0.407399 0
M  V30 562 C 57.8879 3.24275 -1.18068 0
M  V30 563 C 57.0009 3.58442 -2.41129 0
M  V30 564 C 56.1359 4.84994 -2.16689 0
M  V30 565 C 55.1749 5.11939 -3.35537 0
M  V30 566 N 54.3119 6.29685 -3.10549 0
M  V30 567 H 59.1519 1.8891 -2.30472 0
M  V30 568 H 56.6889 0.923373 -1.14509 0
M  V30 569 H 58.6469 4.03479 -1.06116 0
M  V30 570 H 57.2769 3.21711 -0.264973 0
M  V30 571 H 56.3289 2.74103 -2.63764 0
M  V30 572 H 57.6409 3.74283 -3.29717 0
M  V30 573 H 56.7949 5.72135 -2.01857 0
M  V30 574 H 55.5339 4.71286 -1.25462 0
M  V30 575 H 54.5389 4.23268 -3.50891 0
M  V30 576 H 55.7639 5.27546 -4.27635 0
M  V30 577 H 53.7099 6.17306 -2.21967 0
M  V30 578 H 53.6269 6.46014 -3.92686 0
M  V30 579 H 54.8949 7.19722 -2.99367 0
M  V30 580 N 59.124 1.23083 0.984299 0
M  V30 581 C 60.034 1.02515 2.11016 0
M  V30 582 C 61.05 -0.0291702 1.73976 0
M  V30 583 O 62.226 0.165434 2.00719 0
M  V30 584 C 59.291 0.614673 3.41208 0
M  V30 585 C 58.352 1.74359 3.92297 0
M  V30 586 C 57.585 1.35261 5.16275 0
M  V30 587 O 57.808 0.235136 5.69915 0
M  V30 588 O 56.742 2.17227 5.61334 0
M  V30 589 H 60.568 1.96862 2.31255 0
M  V30 590 H 58.153 1.01753 1.09392 0
M  V30 591 H 60.035 0.396518 4.1953 0
M  V30 592 H 58.71 -0.299851 3.22308 0
M  V30 593 H 57.617 2.01635 3.1511 0
M  V30 594 H 58.95 2.63629 4.15645 0
M  V30 595 N 60.6021 -1.18246 1.0419 0
M  V30 596 C 61.5491 -2.2192 0.634037 0
M  V30 597 C 62.5191 -1.62179 -0.358765 0
M  V30 598 O 63.7041 -1.89122 -0.252466 0
M  V30 599 C 60.8441 -3.451 0.00445535 0
M  V30 600 C 59.9571 -4.19174 1.04487 0
M  V30 601 C 59.0921 -5.29813 0.383676 0
M  V30 602 C 58.1311 -5.9566 1.4091 0
M  V30 603 N 57.2681 -6.97834 0.772784 0
M  V30 604 H 62.1081 -2.56164 1.52263 0
M  V30 605 H 59.6451 -1.25843 0.761701 0
M  V30 606 H 61.6031 -4.15485 -0.377919 0
M  V30 607 H 60.2331 -3.11472 -0.847652 0
M  V30 608 H 59.2851 -3.47604 1.54518 0
M  V30 609 H 60.5971 -4.64267 1.82368 0
M  V30 610 H 59.7511 -6.06677 -0.0528366 0
M  V30 611 H 58.4901 -4.85825 -0.427208 0
M  V30 612 H 57.4951 -5.17535 1.85574 0
M  V30 613 H 58.7201 -6.4173 2.22171 0
M  V30 614 H 56.6661 -6.55998 -0.0177708 0
M  V30 615 H 56.5831 -7.41186 1.48928 0
M  V30 616 H 57.8511 -7.78665 0.36071 0
M  V30 617 N 62.0802 -0.821533 -1.34494 0
M  V30 618 C 63.0102 -0.257138 -2.3208 0
M  V30 619 C 63.9912 0.625645 -1.58176 0
M  V30 620 O 65.1762 0.552811 -1.86166 0
M  V30 621 C 62.3062 0.582958 -3.42372 0
M  V30 622 C 61.2602 -0.202571 -4.2752 0
M  V30 623 C 60.5862 0.760179 -5.29269 0
M  V30 624 C 61.8862 -1.40998 -5.02908 0
M  V30 625 H 63.5802 -1.07247 -2.79532 0
M  V30 626 H 61.1262 -0.517163 -1.34393 0
M  V30 627 H 63.0792 0.987972 -4.09655 0
M  V30 628 H 61.8032 1.43133 -2.93565 0
M  V30 629 H 60.4622 -0.588936 -3.61838 0
M  V30 630 H 60.1102 1.60447 -4.76724 0
M  V30 631 H 59.8102 0.238809 -5.87115 0
M  V30 632 H 61.3342 1.16308 -5.9942 0
M  V30 633 H 62.7482 -1.07905 -5.63054 0
M  V30 634 H 61.1452 -1.86689 -5.70322 0
M  V30 635 H 62.2152 -2.1889 -4.32684 0
M  V30 636 N 63.5583 1.46682 -0.576371 0
M  V30 637 C 64.4683 2.34032 0.163141 0
M  V30 638 C 65.4843 1.49367 0.892501 0
M  V30 639 O 66.6603 1.82252 0.857106 0
M  V30 640 C 63.7253 3.26435 1.16795 0
M  V30 641 C 62.7863 4.26998 0.443944 0
M  V30 642 C 62.0193 5.14986 1.40088 0
M  V30 643 O 62.2423 5.05785 2.637 0
M  V30 644 O 61.1763 5.94906 0.914917 0
M  V30 645 H 65.0023 2.98607 -0.55388 0
M  V30 646 H 62.5873 1.45554 -0.336821 0
M  V30 647 H 64.4693 3.83459 1.74748 0
M  V30 648 H 63.1443 2.64465 1.86655 0
M  V30 649 H 62.0513 3.7368 -0.177271 0
M  V30 650 H 63.3843 4.91736 -0.213566 0
M  V30 651 N 65.0364 0.313813 1.54444 0
M  V30 652 C 65.9844 -0.572171 2.25453 0
M  V30 653 C 66.9784 -1.12657 1.2651 0
M  V30 654 O 68.1844 -1.07573 1.44319 0
M  V30 655 H 64.5594 -0.203146 0.724041 0
M  V30 656 H 66.5304 0.0491145 2.9836 0
M  V30 657 C 65.2794 -1.72626 3.0182 0
M  V30 658 H 64.6024 -1.30891 3.77767 0
M  V30 659 H 66.0424 -2.32199 3.54767 0
M  V30 660 C 64.5014 -2.63806 2.09542 0
M  V30 661 O 65.0314 -3.65256 1.67185 0
M  V30 662 N 63.2374 -2.31824 1.75232 0
M  V30 663 H 62.7844 -1.49368 2.09873 0
M  V30 664 H 62.7424 -2.93095 1.13767 0
M  V30 665 N 66.5145 -1.57545 0.0417849 0
M  V30 666 C 67.4475 -2.06514 -0.970928 0
M  V30 667 C 68.4255 -0.963607 -1.30971 0
M  V30 668 O 69.6095 -1.23486 -1.4242 0
M  V30 669 C 66.7365 -2.4978 -2.28752 0
M  V30 670 C 65.7825 -3.71078 -2.10246 0
M  V30 671 S 66.6155 -5.17158 -1.38952 0
M  V30 672 C 67.7715 -5.6373 -2.71954 0
M  V30 673 H 68.0045 -2.9209 -0.554129 0
M  V30 674 H 65.5375 -1.53459 -0.17024 0
M  V30 675 H 67.4955 -2.75371 -3.04435 0
M  V30 676 H 66.1565 -1.64527 -2.67562 0
M  V30 677 H 65.3495 -3.9924 -3.07609 0
M  V30 678 H 64.9515 -3.45705 -1.42704 0
M  V30 679 H 67.2435 -5.68743 -3.68154 0
M  V30 680 H 68.1865 -6.63086 -2.4844 0
M  V30 681 H 68.5945 -4.91424 -2.77782 0
M  V30 682 N 67.9926 0.231505 -1.5589 0
M  V30 683 C 68.9396 1.28682 -1.91598 0
M  V30 684 C 69.9096 1.47071 -0.771974 0
M  V30 685 O 71.0946 1.60802 -1.027 0
M  V30 686 C 68.2346 2.6342 -2.22944 0
M  V30 687 C 67.3476 2.52912 -3.50228 0
M  V30 688 C 66.4826 3.80106 -3.7107 0
M  V30 689 C 65.5216 3.64279 -4.91902 0
M  V30 690 N 64.6586 4.834 -5.09184 0
M  V30 691 H 69.4986 0.975305 -2.81588 0
M  V30 692 H 67.0356 0.470299 -1.39379 0
M  V30 693 H 68.9936 3.41869 -2.39126 0
M  V30 694 H 67.6236 2.92687 -1.36139 0
M  V30 695 H 66.6756 1.6595 -3.42294 0
M  V30 696 H 67.9876 2.37133 -4.38827 0
M  V30 697 H 67.1416 4.66999 -3.87295 0
M  V30 698 H 65.8806 3.98799 -2.80733 0
M  V30 699 H 64.8856 2.7577 -4.75637 0
M  V30 700 H 66.1106 3.47067 -5.83714 0
M  V30 701 H 64.0566 5.02425 -4.21788 0
M  V30 702 H 63.9736 4.70311 -5.91898 0
M  V30 703 H 65.2416 5.71747 -5.29835 0
M  V30 704 N 69.4707 1.49531 0.497807 0
M  V30 705 C 70.4177 1.66436 1.59899 0
M  V30 706 C 71.3877 0.505793 1.58212 0
M  V30 707 O 72.5727 0.733202 1.7615 0
M  V30 708 C 69.7127 1.7399 2.98029 0
M  V30 709 C 68.8257 3.01172 3.09708 0
M  V30 710 C 67.9607 2.99686 4.38591 0
M  V30 711 C 66.9997 4.21434 4.43914 0
M  V30 712 N 66.1367 4.1784 5.64229 0
M  V30 713 H 70.9767 2.60459 1.44793 0
M  V30 714 H 68.5137 1.29137 0.704423 0
M  V30 715 H 70.4717 1.76352 3.78095 0
M  V30 716 H 69.1017 0.834301 3.11832 0
M  V30 717 H 68.1537 3.08408 2.22685 0
M  V30 718 H 69.4657 3.91165 3.09502 0
M  V30 719 H 68.6197 3.00628 5.2698 0
M  V30 720 H 67.3587 2.07477 4.41367 0
M  V30 721 H 66.3637 4.20733 3.53926 0
M  V30 722 H 67.5887 5.14839 4.42851 0
M  V30 723 H 65.5347 3.28469 5.67841 0
M  V30 724 H 65.4517 5.01571 5.65652 0
M  V30 725 H 66.7197 4.22889 6.54817 0
M  V30 726 N 70.9488 -0.749086 1.3866 0
M  V30 727 C 71.8588 -1.89358 1.38494 0
M  V30 728 C 72.8748 -1.71708 0.281476 0
M  V30 729 O 74.0508 -1.94554 0.520643 0
M  V30 730 C 71.1158 -3.24782 1.21316 0
M  V30 731 C 70.1768 -3.54926 2.41508 0
M  V30 732 C 69.4098 -4.83888 2.2514 0
M  V30 733 O 69.6328 -5.56592 1.24746 0
M  V30 734 O 68.5668 -5.13612 3.13826 0
M  V30 735 H 72.3928 -1.92452 2.34938 0
M  V30 736 H 69.9778 -0.894981 1.19626 0
M  V30 737 H 71.8598 -4.05739 1.13814 0
M  V30 738 H 70.5348 -3.2249 0.279592 0
M  V30 739 H 69.4418 -2.74112 2.54585 0
M  V30 740 H 70.7748 -3.61983 3.3351 0
M  V30 741 N 72.4269 -1.23603 -0.977757 0
M  V30 742 C 73.3599 -0.962772 -2.06896 0
M  V30 743 C 74.3379 0.0998743 -1.62293 0
M  V30 744 O 75.5219 -0.0349421 -1.88468 0
M  V30 745 C 72.6489 -0.45095 -3.35685 0
M  V30 746 C 71.6949 -1.50061 -3.99229 0
M  V30 747 S 72.5279 -3.07884 -4.38142 0
M  V30 748 C 73.6839 -2.58378 -5.7008 0
M  V30 749 H 73.9169 -1.88677 -2.29757 0
M  V30 750 H 71.4499 -1.06876 -1.11431 0
M  V30 751 H 73.4079 -0.162261 -4.10179 0
M  V30 752 H 72.0689 0.452179 -3.10828 0
M  V30 753 H 71.2619 -1.09269 -4.92013 0
M  V30 754 H 70.8639 -1.73878 -3.31123 0
M  V30 755 H 73.1559 -2.00563 -6.47133 0
M  V30 756 H 74.0989 -3.49711 -6.15717 0
M  V30 757 H 74.5069 -1.99143 -5.28207 0
M  V30 758 N 73.905 1.17692 -1.04816 0
M  V30 759 C 74.815 2.25229 -0.65643 0
M  V30 760 C 75.831 1.71018 0.320761 0
M  V30 761 O 77.007 2.00649 0.173805 0
M  V30 762 C 74.072 3.46684 -0.0332629 0
M  V30 763 C 73.133 4.15997 -1.06042 0
M  V30 764 C 72.366 5.31654 -0.466893 0
M  V30 765 O 72.589 5.65777 0.724758 0
M  V30 766 O 71.523 5.89831 -1.1993 0
M  V30 767 H 75.349 2.61016 -1.55255 0
M  V30 768 H 72.934 1.24919 -0.81949 0
M  V30 769 H 74.816 4.20234 0.313256 0
M  V30 770 H 73.491 3.12703 0.836566 0
M  V30 771 H 72.398 3.44482 -1.45886 0
M  V30 772 H 73.731 4.53996 -1.90127 0
M  V30 773 N 75.3831 0.828654 1.34056 0
M  V30 774 C 76.6321 0.415828 1.97367 0
M  V30 775 C 76.9451 -1.02796 1.6641 0
M  V30 776 O 78.1511 -1.54497 2.23255 0
M  V30 777 C 76.6071 0.692601 3.53173 0
M  V30 778 C 76.2151 2.15038 3.93017 0
M  V30 779 C 77.9591 0.346222 4.23086 0
M  V30 780 C 75.8661 2.37174 5.41758 0
M  V30 781 H 74.7961 0.151755 0.738571 0
M  V30 782 H 77.4471 1.01581 1.52819 0
M  V30 783 H 75.8291 0.0223764 3.95994 0
M  V30 784 H 77.0031 2.86024 3.61285 0
M  V30 785 H 75.3181 2.45875 3.36057 0
M  V30 786 H 77.9151 0.48937 5.32456 0
M  V30 787 H 78.2581 -0.709842 4.10204 0
M  V30 788 H 78.7911 0.971258 3.85761 0
M  V30 789 H 75.5301 3.41308 5.59633 0
M  V30 790 H 75.0501 1.70738 5.74986 0
M  V30 791 H 76.7291 2.19818 6.08514 0
M  V30 792 N 76.8612 -1.46375 0.584142 0
M  V30 793 C 77.8092 -2.32042 -0.161047 0
M  V30 794 C 78.8032 -1.44569 -0.882966 0
M  V30 795 O 80.0092 -1.61186 -0.801191 0
M  V30 796 H 76.3842 -0.748659 -0.0708033 0
M  V30 797 H 78.3552 -2.92704 0.580269 0
M  V30 798 C 77.1042 -3.27762 -1.1605 0
M  V30 799 H 76.4272 -3.95051 -0.614419 0
M  V30 800 H 77.8672 -3.90481 -1.65228 0
M  V30 801 C 76.3262 -2.53218 -2.22221 0
M  V30 802 O 76.8562 -2.29628 -3.29597 0
M  V30 803 N 75.0622 -2.13756 -1.96868 0
M  V30 804 H 74.6092 -2.33142 -1.09557 0
M  V30 805 H 74.5672 -1.642 -2.68115 0
M  V30 806 N 78.3393 -0.321999 -1.54275 0
M  V30 807 C 79.6163 0.335232 -1.92706 0
M  V30 808 C 79.9963 1.70006 -1.25145 0
M  V30 809 O 79.3443 2.25067 -0.394596 0
M  V30 810 C 79.5543 0.429008 -3.46353 0
M  V30 811 C 80.9023 0.690029 -4.18956 0
M  V30 812 O 81.9263 0.511992 -3.52501 0
M  V30 813 O 80.7853 1.03338 -5.36641 0
M  V30 814 H 77.8793 0.191143 -0.804608 0
M  V30 815 H 80.4253 -0.3716 -1.65581 0
M  V30 816 H 79.1973 -0.529611 -3.87699 0
M  V30 817 H 78.8203 1.18348 -3.79578 0
M  V30 818 N 79.8174 1.5752 -0.0501392 0
M  V30 819 C 80.7674 2.07981 0.934231 0
M  V30 820 C 81.7514 0.984745 1.27246 0
M  V30 821 O 82.9434 1.24809 1.25506 0
M  V30 822 C 80.0724 2.62751 2.20945 0
M  V30 823 C 79.1584 3.79225 1.89865 0
M  V30 824 N 79.5494 4.89036 1.29142 0
M  V30 825 C 77.8474 3.88111 2.19741 0
M  V30 826 C 78.5484 5.70084 1.15669 0
M  V30 827 N 77.5244 5.17659 1.65923 0
M  V30 828 H 81.3264 2.90277 0.460053 0
M  V30 829 H 78.8404 1.61665 0.15434 0
M  V30 830 H 80.8374 2.97205 2.9236 0
M  V30 831 H 79.4974 1.81894 2.6897 0
M  V30 832 H 80.5084 5.08854 0.963756 0
M  V30 833 H 77.1854 3.18194 2.70293 0
M  V30 834 H 78.5754 6.68395 0.685356 0
M  V30 835 N 81.2955 -0.223234 1.56011 0
M  V30 836 C 82.2275 -1.30006 1.88762 0
M  V30 837 C 83.2405 -1.43129 0.775746 0
M  V30 838 O 84.4295 -1.44057 1.05403 0
M  V30 839 C 81.5295 -2.67589 2.07965 0
M  V30 840 C 80.7025 -2.76434 3.38973 0
M  V30 841 C 79.7615 -3.95019 3.47629 0
M  V30 842 O 78.7875 -3.83436 4.20672 0
M  V30 843 N 79.9895 -5.09249 2.78649 0
M  V30 844 H 82.7545 -1.02238 2.81722 0
M  V30 845 H 80.3155 -0.413278 1.56536 0
M  V30 846 H 82.3075 -3.45297 2.11073 0
M  V30 847 H 80.8775 -2.87964 1.21638 0
M  V30 848 H 80.0975 -1.85216 3.47978 0
M  V30 849 H 81.3855 -2.79313 4.25278 0
M  V30 850 H 80.7835 -5.21556 2.19081 0
M  V30 851 H 79.3405 -5.85007 2.8742 0
M  V30 852 N 82.7736 -1.49793 -0.48987 0
M  V30 853 C 83.7036 -1.70201 -1.59856 0
M  V30 854 C 84.6846 -0.55076 -1.60937 0
M  V30 855 O 85.8696 -0.787841 -1.77501 0
M  V30 856 C 82.9996 -1.77882 -2.98287 0
M  V30 857 C 81.9536 -2.92907 -3.12073 0
M  V30 858 C 81.2796 -2.85712 -4.51965 0
M  V30 859 C 82.5796 -4.3369 -2.91051 0
M  V30 860 H 84.2736 -2.63025 -1.43032 0
M  V30 861 H 81.8196 -1.26574 -0.686664 0
M  V30 862 H 83.7726 -1.90744 -3.75759 0
M  V30 863 H 82.4966 -0.816653 -3.16225 0
M  V30 864 H 81.1556 -2.79665 -2.37029 0
M  V30 865 H 80.8036 -1.8738 -4.66795 0
M  V30 866 H 80.5036 -3.62921 -4.62128 0
M  V30 867 H 82.0276 -3.00598 -5.31482 0
M  V30 868 H 83.4416 -4.47555 -3.58284 0
M  V30 869 H 81.8386 -5.12205 -3.12675 0
M  V30 870 H 82.9086 -4.47362 -1.87071 0
M  V30 871 N 84.2517 0.741722 -1.39055 0
M  V30 872 C 85.4767 1.53607 -1.39354 0
M  V30 873 C 85.9017 1.88096 0.0116905 0
M  V30 874 O 85.2597 1.5143 0.996924 0
M  V30 875 C 85.3077 2.80441 -2.26682 0
M  V30 876 O 84.4117 3.76088 -1.69208 0
M  V30 877 H 83.7527 0.464142 -0.474835 0
M  V30 878 H 86.2827 0.915665 -1.82967 0
M  V30 879 H 86.2927 3.29246 -2.40959 0
M  V30 880 H 84.9677 2.5467 -3.2881 0
M  V30 881 H 83.5447 3.34833 -1.64138 0
M  V30 882 N 85.7298 1.2412 0.971189 0
M  V30 883 C 86.9758 1.08041 1.71625 0
M  V30 884 C 87.3088 -0.380407 1.90438 0
M  V30 885 O 86.5838 -1.28127 1.46334 0
M  V30 886 C 86.8668 1.81682 3.10908 0
M  V30 887 C 86.7198 3.35493 2.99608 0
M  V30 888 C 88.0388 1.58671 4.10501 0
M  V30 889 H 85.1578 0.39388 0.622919 0
M  V30 890 H 87.7998 1.52743 1.13003 0
M  V30 891 H 85.9498 1.43684 3.60953 0
M  V30 892 H 87.6218 3.83068 2.57015 0
M  V30 893 H 85.8648 3.64052 2.35899 0
M  V30 894 H 86.5358 3.82217 3.98264 0
M  V30 895 H 89.0118 1.91719 3.69301 0
M  V30 896 H 87.8878 2.1266 5.06031 0
M  V30 897 H 88.1488 0.524161 4.38982 0
M  V30 898 N 87.2079 -1.17134 1.05439 0
M  V30 899 C 88.1709 -2.19439 0.661764 0
M  V30 900 C 89.1709 -1.58199 -0.288042 0
M  V30 901 O 90.3609 -1.74053 -0.0715803 0
M  V30 902 C 87.4929 -3.40889 -0.0276209 0
M  V30 903 H 88.6859 -2.55688 1.56728 0
M  V30 904 H 86.2389 -1.31259 0.848567 0
M  V30 905 H 86.9739 -3.10187 -0.94629 0
M  V30 906 H 86.7589 -3.86586 0.655238 0
M  V30 907 H 88.2489 -4.16603 -0.288342 0
M  V30 908 N 88.686 -0.835752 -1.33615 0
M  V30 909 C 89.596 -0.269088 -2.33052 0
M  V30 910 C 90.612 0.603251 -1.63208 0
M  V30 911 O 91.788 0.508112 -1.94885 0
M  V30 912 C 88.853 0.549091 -3.42324 0
M  V30 913 C 87.914 -0.347156 -4.27894 0
M  V30 914 C 87.147 0.43207 -5.31948 0
M  V30 915 O 87.37 1.66409 -5.45586 0
M  V30 916 O 86.304 -0.192298 -6.01593 0
M  V30 917 H 90.13 -1.09243 -2.83372 0
M  V30 918 H 87.715 -0.598198 -1.36901 0
M  V30 919 H 89.597 1.01414 -4.09015 0
M  V30 920 H 88.272 1.34955 -2.94226 0
M  V30 921 H 87.179 -0.859979 -3.64081 0
M  V30 922 H 88.512 -1.1123 -4.79467 0
M  V30 923 N 90.1641 1.46063 -0.591896 0
M  V30 924 C 91.0941 2.33172 0.123673 0
M  V30 925 C 92.0751 1.45897 0.87453 0
M  V30 926 O 93.2601 1.74698 0.848181 0
M  V30 927 C 90.3901 3.28336 1.13194 0
M  V30 928 C 89.3441 4.25124 0.495324 0
M  V30 929 C 88.6701 5.09863 1.61071 0
M  V30 930 C 89.9701 5.19143 -0.573425 0
M  V30 931 H 91.6641 2.93252 -0.603646 0
M  V30 932 H 89.2101 1.41014 -0.291741 0
M  V30 933 H 91.1631 3.88137 1.64097 0
M  V30 934 H 89.8871 2.66383 1.88965 0
M  V30 935 H 88.5461 3.66599 0.00729452 0
M  V30 936 H 88.1941 4.44288 2.35832 0
M  V30 937 H 87.8941 5.75417 1.19035 0
M  V30 938 H 89.4181 5.72529 2.12233 0
M  V30 939 H 90.8321 5.73106 -0.1491 0
M  V30 940 H 89.2291 5.93089 -0.914636 0
M  V30 941 H 90.2991 4.62519 -1.45617 0
M  V30 942 N 91.6422 0.330177 1.54103 0
M  V30 943 C 92.5522 -0.541534 2.28264 0
M  V30 944 C 93.5682 -1.12351 1.32866 0
M  V30 945 O 94.7442 -1.14206 1.65888 0
M  V30 946 C 91.8092 -1.68322 3.03098 0
M  V30 947 C 90.8702 -1.13238 4.14096 0
M  V30 948 C 90.1032 -2.21966 4.85352 0
M  V30 949 O 90.3262 -3.42437 4.56172 0
M  V30 950 O 89.2602 -1.87013 5.7211 0
M  V30 951 H 93.0862 0.060938 3.03639 0
M  V30 952 H 90.6712 0.09565 1.49093 0
M  V30 953 H 92.5532 -2.34777 3.49939 0
M  V30 954 H 91.2282 -2.27176 2.30593 0
M  V30 955 H 90.1352 -0.432736 3.71589 0
M  V30 956 H 91.4682 -0.588898 4.88664 0
M  V30 957 N 93.1203 -1.57491 0.0584922 0
M  V30 958 C 94.0523 -2.08916 -0.942694 0
M  V30 959 C 95.0653 -1.0185 -1.27006 0
M  V30 960 O 96.2543 -1.29398 -1.22957 0
M  V30 961 C 93.3543 -2.52341 -2.26224 0
M  V30 962 C 92.5273 -3.82827 -2.1157 0
M  V30 963 C 91.5863 -4.12487 -3.26712 0
M  V30 964 O 90.6123 -4.82295 -3.02292 0
M  V30 965 N 91.8143 -3.64978 -4.5141 0
M  V30 966 H 94.5793 -2.95437 -0.503722 0
M  V30 967 H 92.1403 -1.61397 -0.12757 0
M  V30 968 H 94.1323 -2.69254 -3.02133 0
M  V30 969 H 92.7023 -1.7103 -2.61663 0
M  V30 970 H 91.9223 -3.75425 -1.20208 0
M  V30 971 H 93.2103 -4.68263 -1.99015 0
M  V30 972 H 92.6083 -3.08558 -4.7414 0
M  V30 973 H 91.1653 -3.87115 -5.2439 0
M  V30 974 N 94.5984 0.214957 -1.56127 0
M  V30 975 C 95.5454 1.26642 -1.92952 0
M  V30 976 C 96.5154 1.46244 -0.78753 0
M  V30 977 O 97.7004 1.59704 -1.04399 0
M  V30 978 C 94.8404 2.6104 -2.25726 0
M  V30 979 C 93.9534 2.49183 -3.52891 0
M  V30 980 C 93.0884 3.76149 -3.7508 0
M  V30 981 C 92.1274 3.59041 -4.95738 0
M  V30 982 N 91.2644 4.77972 -5.14283 0
M  V30 983 H 96.1044 0.945384 -2.82607 0
M  V30 984 H 93.6414 0.455489 -1.3987 0
M  V30 985 H 95.5994 3.39313 -2.42739 0
M  V30 986 H 94.2294 2.91227 -1.39236 0
M  V30 987 H 93.2814 1.6231 -3.44034 0
M  V30 988 H 94.5934 2.32466 -4.41318 0
M  V30 989 H 93.7474 4.62865 -3.92226 0
M  V30 990 H 92.4864 3.95799 -2.84947 0
M  V30 991 H 91.4914 2.7071 -4.78535 0
M  V30 992 H 92.7164 3.40856 -5.87362 0
M  V30 993 H 90.6624 4.97923 -4.27093 0
M  V30 994 H 90.5794 4.64006 -5.96853 0
M  V30 995 H 91.8474 5.66096 -5.35869 0
M  V30 996 N 96.0765 1.50051 0.48192 0
M  V30 997 C 97.3065 1.63999 1.2565 0
M  V30 998 C 97.7145 0.318288 1.86504 0
M  V30 999 O 97.0575 -0.708534 1.69486 0
M  V30 1000 C 97.1195 2.66504 2.4128 0
M  V30 1001 C 96.7835 4.10352 2.01148 0
M  V30 1002 C 97.7805 4.96562 1.54021 0
M  V30 1003 C 95.4655 4.56203 2.10199 0
M  V30 1004 C 97.4595 6.26668 1.16473 0
M  V30 1005 C 95.1465 5.86318 1.72264 0
M  V30 1006 C 96.1445 6.71375 1.25477 0
M  V30 1007 O 95.8325 7.99062 0.880626 0
M  V30 1008 H 95.5645 0.55456 0.386574 0
M  V30 1009 H 98.1185 1.96954 0.582944 0
M  V30 1010 H 96.3485 2.28769 3.11772 0
M  V30 1011 H 98.0375 2.69783 3.03268 0
M  V30 1012 H 98.8035 4.62358 1.46458 0
M  V30 1013 H 94.6825 3.90152 2.45566 0
M  V30 1014 H 98.2265 6.93011 0.798841 0
M  V30 1015 H 94.1235 6.20046 1.79482 0
M  V30 1016 H 94.8915 8.12239 1.01043 0
M  V30 1017 N 97.5546 -0.734337 1.39446 0
M  V30 1018 C 98.4866 -1.85861 1.34121 0
M  V30 1019 C 99.4996 -1.60871 0.249864 0
M  V30 1020 O 100.689 -1.71093 0.508865 0
M  V30 1021 C 97.7886 -3.21899 1.05991 0
M  V30 1022 C 96.9616 -3.74239 2.26415 0
M  V30 1023 C 96.0206 -4.88841 1.94733 0
M  V30 1024 O 95.0466 -5.02468 2.67422 0
M  V30 1025 N 96.2486 -5.73261 0.913884 0
M  V30 1026 H 99.0136 -1.90934 2.31007 0
M  V30 1027 H 96.5746 -0.915102 1.33557 0
M  V30 1028 H 98.5666 -3.96136 0.828147 0
M  V30 1029 H 97.1366 -3.12091 0.178361 0
M  V30 1030 H 96.3566 -2.91347 2.65539 0
M  V30 1031 H 97.6446 -4.05942 3.06738 0
M  V30 1032 H 97.0426 -5.64842 0.311476 0
M  V30 1033 H 95.5996 -6.47563 0.742015 0
M  V30 1034 N 99.0327 -1.24633 -0.964593 0
M  V30 1035 C 100.261 -1.11501 -1.74285 0
M  V30 1036 C 100.676 0.332165 -1.85855 0
M  V30 1037 O 100.033 1.22903 -1.34911 0
M  V30 1038 C 100.084 -1.75258 -3.16175 0
M  V30 1039 O 99.8047 -3.14318 -3.05182 0
M  V30 1040 C 101.306 -1.67776 -4.10324 0
M  V30 1041 H 98.5257 -0.389407 -0.546446 0
M  V30 1042 H 101.07 -1.64801 -1.21083 0
M  V30 1043 H 99.2247 -1.25954 -3.66353 0
M  V30 1044 H 99.6387 -3.4551 -3.94618 0
M  V30 1045 H 101.113 -2.17064 -5.0753 0
M  V30 1046 H 101.59 -0.639584 -4.34518 0
M  V30 1047 H 102.196 -2.16522 -3.66058 0
M  V30 1048 N 100.511 1.16574 -1.06058 0
M  V30 1049 C 101.736 1.91493 -0.796562 0
M  V30 1050 C 102.161 1.76773 0.642868 0
M  V30 1051 O 101.519 1.09142 1.44768 0
M  V30 1052 C 101.567 3.40293 -1.19303 0
M  V30 1053 O 100.671 4.11074 -0.330394 0
M  V30 1054 H 100.012 0.596678 -0.291326 0
M  V30 1055 H 102.542 1.47708 -1.41575 0
M  V30 1056 H 102.552 3.91057 -1.16356 0
M  V30 1057 H 101.227 3.50326 -2.24153 0
M  V30 1058 H 99.8038 3.70513 -0.421225 0
M  V30 1059 N 101.989 0.842826 1.3317 0
M  V30 1060 C 102.952 0.284065 2.27433 0
M  V30 1061 C 103.952 -0.54948 1.5112 0
M  V30 1062 O 105.142 -0.362699 1.70382 0
M  V30 1063 C 102.274 -0.599384 3.35589 0
M  V30 1064 H 103.467 1.11589 2.78366 0
M  V30 1065 H 101.02 0.616221 1.4364 0
M  V30 1066 H 101.755 -1.45349 2.89904 0
M  V30 1067 H 101.54 -0.00291266 3.921 0
M  V30 1068 H 103.03 -0.983488 4.05854 0
M  V30 1069 N 103.467 -1.45747 0.599634 0
M  V30 1070 C 104.695 -2.06668 0.0978551 0
M  V30 1071 C 105.11 -1.44562 -1.21439 0
M  V30 1072 O 104.467 -0.556923 -1.73795 0
M  V30 1073 C 104.518 -3.61456 -0.0567044 0
M  V30 1074 O 104.239 -4.21242 1.20361 0
M  V30 1075 C 105.74 -4.39345 -0.590869 0
M  V30 1076 H 102.96 -0.667825 0.0651943 0
M  V30 1077 H 105.504 -1.87115 0.82511 0
M  V30 1078 H 103.659 -3.80378 -0.734251 0
M  V30 1079 H 104.073 -5.14323 1.02821 0
M  V30 1080 H 105.547 -5.48182 -0.648131 0
M  V30 1081 H 106.024 -4.08568 -1.61147 0
M  V30 1082 H 106.63 -4.25268 0.0523679 0
M  V30 1083 N 104.945 -0.338344 -1.53925 0
M  V30 1084 C 105.892 0.520845 -2.24846 0
M  V30 1085 C 106.862 1.09976 -1.24477 0
M  V30 1086 O 108.047 1.13735 -1.53196 0
M  V30 1087 C 105.187 1.6685 -3.02084 0
M  V30 1088 C 104.3 1.11739 -4.17299 0
M  V30 1089 C 103.435 2.23193 -4.82036 0
M  V30 1090 C 102.474 1.65407 -5.89328 0
M  V30 1091 N 101.611 2.70582 -6.47866 0
M  V30 1092 H 106.451 -0.0904881 -2.97863 0
M  V30 1093 H 103.988 -0.0564282 -1.46992 0
M  V30 1094 H 105.946 2.34407 -3.45122 0
M  V30 1095 H 104.576 2.2509 -2.31375 0
M  V30 1096 H 103.628 0.332919 -3.7894 0
M  V30 1097 H 104.94 0.654677 -4.94485 0
M  V30 1098 H 104.094 2.98626 -5.28117 0
M  V30 1099 H 102.833 2.72807 -4.04262 0
M  V30 1100 H 101.838 0.884779 -5.42634 0
M  V30 1101 H 103.063 1.16652 -6.69006 0
M  V30 1102 H 101.009 3.1946 -5.72959 0
M  V30 1103 H 100.926 2.28917 -7.20509 0
M  V30 1104 H 102.194 3.45799 -6.98601 0
M  V30 1105 N 106.423 1.57458 -0.0668435 0
M  V30 1106 C 107.671 1.92919 0.602214 0
M  V30 1107 C 107.992 0.947215 1.70449 0
M  V30 1108 O 107.262 -0.00544117 1.95899 0
M  V30 1109 H 105.842 0.71217 0.22544 0
M  V30 1110 H 108.504 1.94508 -0.123535 0
M  V30 1111 H 107.6 2.94589 1.03073 0
M  V30 1112 N 107.901 -0.206675 1.56239 0
M  V30 1113 C 108.831 -1.25909 1.96645 0
M  V30 1114 C 109.812 -1.48097 0.836734 0
M  V30 1115 O 110.997 -1.6003 1.10019 0
M  V30 1116 C 108.127 -2.6058 2.29599 0
M  V30 1117 C 107.081 -2.53024 3.452 0
M  V30 1118 C 106.407 -3.91861 3.63798 0
M  V30 1119 C 107.707 -2.06524 4.79734 0
M  V30 1120 H 109.401 -0.923369 2.84806 0
M  V30 1121 H 106.947 -0.442735 1.37025 0
M  V30 1122 H 108.9 -3.34375 2.56459 0
M  V30 1123 H 107.624 -2.95869 1.38307 0
M  V30 1124 H 106.283 -1.81684 3.18412 0
M  V30 1125 H 105.931 -4.24483 2.69857 0
M  V30 1126 H 105.631 -3.87683 4.4156 0
M  V30 1127 H 107.155 -4.67296 3.93022 0
M  V30 1128 H 108.569 -2.70072 5.05702 0
M  V30 1129 H 106.966 -2.13374 5.60885 0
M  V30 1130 H 108.036 -1.01802 4.74093 0
M  V30 1131 N 109.379 -1.50304 -0.473955 0
M  V30 1132 C 110.604 -1.65175 -1.25427 0
M  V30 1133 C 111.029 -0.333673 -1.85117 0
M  V30 1134 O 110.387 0.702114 -1.67153 0
M  V30 1135 C 110.435 -2.74295 -2.34082 0
M  V30 1136 O 109.539 -2.35349 -3.38651 0
M  V30 1137 H 108.88 -0.551944 -0.369126 0
M  V30 1138 H 111.41 -1.96662 -0.564364 0
M  V30 1139 H 111.42 -2.97285 -2.79438 0
M  V30 1140 H 110.095 -3.69959 -1.90008 0
M  V30 1141 H 108.672 -2.22794 -2.99027 0
M  V30 1142 N 110.857 0.726932 -1.39834 0
M  V30 1143 C 111.82 1.82269 -1.38962 0
M  V30 1144 C 112.82 1.58248 -0.285334 0
M  V30 1145 O 114.01 1.65499 -0.54366 0
M  V30 1146 C 111.142 3.20186 -1.17019 0
M  V30 1147 H 112.335 1.84443 -2.36476 0
M  V30 1148 H 109.888 0.931416 -1.25516 0
M  V30 1149 H 110.623 3.23669 -0.202204 0
M  V30 1150 H 110.408 3.3902 -1.96998 0
M  V30 1151 H 111.898 4.00235 -1.1917 0
M  V30 1152 N 112.336 1.25143 0.95797 0
M  V30 1153 C 113.561 1.12521 1.74223 0
M  V30 1154 C 113.986 -0.317402 1.85403 0
M  V30 1155 O 113.344 -1.2299 1.33204 0
M  V30 1156 C 113.392 1.78062 3.1357 0
M  V30 1157 O 112.496 1.058 3.98598 0
M  V30 1158 H 111.837 0.39304 0.535178 0
M  V30 1159 H 114.367 1.65641 1.201 0
M  V30 1160 H 114.377 1.84213 3.64046 0
M  V30 1161 H 113.052 2.83021 3.04749 0
M  V30 1162 H 111.629 1.07506 3.57067 0
M  V30 1163 N 113.814 -1.1601 1.06675 0
M  V30 1164 C 114.744 -2.22688 0.702307 0
M  V30 1165 C 115.725 -1.67306 -0.307032 0
M  V30 1166 O 116.91 -1.93352 -0.181305 0
M  V30 1167 C 114.04 -3.47178 0.092038 0
M  V30 1168 C 112.994 -4.15477 1.02777 0
M  V30 1169 C 112.32 -5.33963 0.28061 0
M  V30 1170 C 113.62 -4.66019 2.35846 0
M  V30 1171 H 115.314 -2.53429 1.59419 0
M  V30 1172 H 112.86 -1.21813 0.767961 0
M  V30 1173 H 114.813 -4.21037 -0.174814 0
M  V30 1174 H 113.537 -3.15749 -0.834877 0
M  V30 1175 H 112.196 -3.43549 1.27944 0
M  V30 1176 H 111.844 -4.98788 -0.649545 0
M  V30 1177 H 111.544 -5.806 0.904258 0
M  V30 1178 H 113.068 -6.10596 0.021396 0
M  V30 1179 H 114.482 -5.3144 2.15045 0
M  V30 1180 H 112.879 -5.23293 2.93743 0
M  V30 1181 H 113.949 -3.82023 2.98641 0
M  V30 1182 N 115.292 -0.849877 -1.32721 0
M  V30 1183 C 116.255 -0.296122 -2.27279 0
M  V30 1184 C 117.255 0.541458 -1.5141 0
M  V30 1185 O 118.445 0.353658 -1.70572 0
M  V30 1186 C 115.577 0.581579 -3.35902 0
M  V30 1187 H 116.77 -1.13064 -2.77771 0
M  V30 1188 H 114.323 -0.62383 -1.43311 0
M  V30 1189 H 115.058 1.43809 -2.9067 0
M  V30 1190 H 114.843 -0.0178814 -3.92096 0
M  V30 1191 H 116.333 0.961951 -4.0637 0
M  V30 1192 N 116.77 1.45427 -0.607355 0
M  V30 1193 C 117.733 2.28974 0.101693 0
M  V30 1194 C 118.733 1.39754 0.795329 0
M  V30 1195 O 119.923 1.61878 0.643527 0
M  V30 1196 C 117.055 3.20768 1.15414 0
M  V30 1197 H 118.248 2.93147 -0.632844 0
M  V30 1198 H 115.801 1.51945 -0.366391 0
M  V30 1199 H 116.536 2.61395 1.91945 0
M  V30 1200 H 116.321 3.86489 0.66098 0
M  V30 1201 H 117.811 3.83589 1.65073 0
M  V30 1202 N 118.248 0.346503 1.53744 0
M  V30 1203 C 119.158 -0.517293 2.28826 0
M  V30 1204 C 120.174 -1.10935 1.3405 0
M  V30 1205 O 121.35 -1.1244 1.6709 0
M  V30 1206 C 118.415 -1.65098 3.04866 0
M  V30 1207 C 117.476 -1.0884 4.15274 0
M  V30 1208 C 116.709 -2.16806 4.87679 0
M  V30 1209 O 116.932 -3.3758 4.59778 0
M  V30 1210 O 115.866 -1.80934 5.74061 0
M  V30 1211 H 119.692 0.0931396 3.03557 0
M  V30 1212 H 117.277 0.111458 1.48984 0
M  V30 1213 H 119.159 -2.31053 3.5241 0
M  V30 1214 H 117.834 -2.24717 2.32989 0
M  V30 1215 H 116.741 -0.3933 3.72027 0
M  V30 1216 H 118.074 -0.537036 4.89261 0
M  V30 1217 N 119.726 -1.57421 0.075193 0
M  V30 1218 C 120.656 -2.15942 -0.888324 0
M  V30 1219 C 121.637 -1.08737 -1.30806 0
M  V30 1220 O 122.822 -1.36787 -1.37851 0
M  V30 1221 C 119.952 -2.72379 -2.1547 0
M  V30 1222 C 118.906 -3.8478 -1.87425 0
M  V30 1223 C 118.232 -4.27834 -3.20721 0
M  V30 1224 C 119.532 -5.08869 -1.17684 0
M  V30 1225 H 121.226 -2.96705 -0.400799 0
M  V30 1226 H 118.772 -1.42723 -0.191342 0
M  V30 1227 H 120.725 -3.11965 -2.83295 0
M  V30 1228 H 119.449 -1.88841 -2.6647 0
M  V30 1229 H 118.108 -3.45703 -1.22004 0
M  V30 1230 H 117.756 -3.41214 -3.6957 0
M  V30 1231 H 117.456 -5.03605 -3.02746 0
M  V30 1232 H 118.98 -4.70039 -3.89738 0
M  V30 1233 H 120.394 -5.4575 -1.75584 0
M  V30 1234 H 118.791 -5.8994 -1.09956 0
M  V30 1235 H 119.861 -4.84648 -0.156453 0
M  V30 1236 N 121.204 0.198386 -1.56346 0
M  V30 1237 C 122.134 1.24865 -1.9731 0
M  V30 1238 C 123.115 1.47651 -0.844576 0
M  V30 1239 O 124.3 1.59444 -1.10866 0
M  V30 1240 C 121.43 2.59358 -2.30977 0
M  V30 1241 C 120.384 2.5119 -3.46537 0
M  V30 1242 C 119.71 3.89926 -3.65871 0
M  V30 1243 C 121.01 2.03977 -4.80823 0
M  V30 1244 H 122.704 0.908252 -2.85291 0
M  V30 1245 H 120.25 0.435462 -1.37258 0
M  V30 1246 H 122.203 3.33011 -2.58228 0
M  V30 1247 H 120.927 2.95132 -1.39874 0
M  V30 1248 H 119.586 1.79993 -3.19371 0
M  V30 1249 H 119.234 4.23046 -2.72105 0
M  V30 1250 H 118.934 3.85336 -4.4361 0
M  V30 1251 H 120.458 4.65205 -3.95495 0
M  V30 1252 H 121.872 2.67386 -5.07127 0
M  V30 1253 H 120.269 2.10397 -5.62008 0
M  V30 1254 H 121.339 0.992861 -4.74626 0
M  V30 1255 N 122.682 1.50554 0.465978 0
M  V30 1256 C 123.612 1.72722 1.57128 0
M  V30 1257 C 124.593 0.576294 1.6004 0
M  V30 1258 O 125.778 0.81598 1.76225 0
M  V30 1259 C 122.908 1.82605 2.95419 0
M  V30 1260 C 121.862 2.97835 3.07373 0
M  V30 1261 C 121.188 2.92867 4.47363 0
M  V30 1262 C 122.488 4.38265 2.84114 0
M  V30 1263 H 124.182 2.65267 1.38829 0
M  V30 1264 H 121.728 1.2765 0.666441 0
M  V30 1265 H 123.681 1.96698 3.72677 0
M  V30 1266 H 122.405 0.866858 3.14886 0
M  V30 1267 H 121.064 2.83401 2.3255 0
M  V30 1268 H 120.712 1.94783 4.63755 0
M  V30 1269 H 120.412 3.70227 4.56296 0
M  V30 1270 H 121.936 3.09015 5.26633 0
M  V30 1271 H 123.35 4.53198 3.51118 0
M  V30 1272 H 121.747 5.17115 3.04487 0
M  V30 1273 H 122.817 4.50281 1.7993 0
M  V30 1274 N 124.16 -0.719506 1.40217 0
M  V30 1275 C 125.576 -1.02707 1.22161 0
M  V30 1276 C 125.776 -2.0128 0.0940557 0
M  V30 1277 O 124.832 -2.46452 -0.549318 0
M  V30 1278 C 126.145 -1.57454 2.56181 0
M  V30 1279 C 127.693 -1.69458 2.63159 0
M  V30 1280 C 128.168 -2.27611 3.97438 0
M  V30 1281 N 129.659 -2.35002 3.99159 0
M  V30 1282 C 130.394 -2.80972 4.99842 0
M  V30 1283 N 129.89 -3.26723 6.10921 0
M  V30 1284 N 131.683 -2.80321 4.87213 0
M  V30 1285 H 123.834 -0.0660492 2.12297 0
M  V30 1286 H 126.097 -0.0919077 0.943534 0
M  V30 1287 H 125.803 -0.924873 3.39321 0
M  V30 1288 H 125.677 -2.56036 2.76993 0
M  V30 1289 H 128.064 -2.33543 1.80393 0
M  V30 1290 H 128.145 -0.694867 2.46181 0
M  V30 1291 H 127.789 -1.6415 4.80643 0
M  V30 1292 H 127.719 -3.2829 4.11744 0
M  V30 1293 H 130.21 -2.02685 3.18947 0
M  V30 1294 H 130.523 -3.60355 6.8364 0
M  V30 1295 H 128.868 -3.24692 6.14492 0
M  V30 1296 H 132.059 -2.43912 3.9953 0
M  V30 1297 H 132.232 -3.15831 5.65822 0
M  V30 1298 N 125.638 -1.25649 -0.95132 0
M  V30 1299 C 126.915 -1.01361 -1.67288 0
M  V30 1300 C 127.295 0.459135 -2.06046 0
M  V30 1301 O 126.643 1.43723 -1.7764 0
M  V30 1302 C 126.853 -1.95256 -2.89268 0
M  V30 1303 C 128.201 -2.23289 -3.61147 0
M  V30 1304 O 129.225 -1.93041 -2.99355 0
M  V30 1305 O 128.084 -2.74741 -4.72419 0
M  V30 1306 H 125.178 -0.38464 -0.732107 0
M  V30 1307 H 127.724 -1.36817 -1.00395 0
M  V30 1308 H 126.496 -2.94685 -2.57442 0
M  V30 1309 H 126.119 -1.60218 -3.6389 0
M  V30 1310 N 127.117 1.15442 -1.07289 0
M  V30 1311 C 128.365 1.85845 -0.794096 0
M  V30 1312 C 128.686 1.82692 0.681809 0
M  V30 1313 O 127.956 1.26741 1.49377 0
M  V30 1314 H 126.536 0.688089 -0.290763 0
M  V30 1315 H 129.198 1.39947 -1.3565 0
M  V30 1316 H 128.294 2.91001 -1.12804 0
M  V30 1317 N 128.595 0.856903 1.32268 0
M  V30 1318 C 130.006 0.515711 1.79436 0
M  V30 1319 C 130.357 -0.966586 1.70738 0
M  V30 1320 O 129.482 -1.75409 1.26731 0
M  V30 1321 C 130.077 0.929335 3.25805 0
M  V30 1322 C 128.636 0.640006 3.70919 0
M  V30 1323 C 127.783 1.12784 2.53328 0
M  V30 1324 H 130.734 1.04389 1.19535 0
M  V30 1325 H 130.755 0.246633 3.797 0
M  V30 1326 H 130.267 2.00821 3.32103 0
M  V30 1327 H 128.368 -0.428051 3.70133 0
M  V30 1328 H 128.481 1.20788 4.63624 0
M  V30 1329 H 126.845 0.548033 2.48734 0
M  V30 1330 H 127.628 2.21387 2.62379 0
M  V30 1331 N 130.073 -1.45103 0.615059 0
M  V30 1332 C 131.021 -2.32331 -0.111791 0
M  V30 1333 C 132.015 -1.46409 -0.852102 0
M  V30 1334 O 133.221 -1.62849 -0.766821 0
M  V30 1335 H 129.596 -0.749993 -0.0549072 0
M  V30 1336 H 131.567 -2.91407 0.642225 0
M  V30 1337 C 130.316 -3.3015 -1.09071 0
M  V30 1338 H 129.639 -3.96265 -0.530485 0
M  V30 1339 H 131.079 -3.93898 -1.56908 0
M  V30 1340 C 129.538 -2.57875 -2.168 0
M  V30 1341 O 130.068 -2.36567 -3.24652 0
M  V30 1342 N 128.274 -2.17884 -1.92289 0
M  V30 1343 H 127.821 -2.35413 -1.04587 0
M  V30 1344 H 127.779 -1.6985 -2.64572 0
M  V30 1345 N 131.551 -0.354651 -1.53558 0
M  V30 1346 C 132.514 0.484566 -2.24019 0
M  V30 1347 C 133.514 1.01861 -1.24422 0
M  V30 1348 O 134.704 0.906097 -1.4878 0
M  V30 1349 C 131.836 1.67615 -2.96847 0
M  V30 1350 H 133.029 -0.131843 -2.9961 0
M  V30 1351 H 130.582 -0.106165 -1.55939 0
M  V30 1352 H 131.317 2.33095 -2.25471 0
M  V30 1353 H 131.102 1.30029 -3.69912 0
M  V30 1354 H 132.592 2.27114 -3.50441 0
M  V30 1355 N 133.029 1.57378 -0.0835403 0
M  V30 1356 C 133.959 2.1641 0.87686 0
M  V30 1357 C 134.94 1.09429 1.30228 0
M  V30 1358 O 136.125 1.37516 1.37124 0
M  V30 1359 C 133.255 2.73517 2.14022 0
M  V30 1360 C 132.209 3.85769 1.85381 0
M  V30 1361 C 131.535 4.29529 3.18448 0
M  V30 1362 C 132.835 5.09486 1.14984 0
M  V30 1363 H 134.529 2.96914 0.385059 0
M  V30 1364 H 132.075 1.42823 0.18377 0
M  V30 1365 H 134.028 3.13463 2.81636 0
M  V30 1366 H 132.752 1.90252 2.65465 0
M  V30 1367 H 131.411 3.46345 1.20169 0
M  V30 1368 H 131.059 3.43169 3.67755 0
M  V30 1369 H 130.759 5.05204 3.00071 0
M  V30 1370 H 132.283 4.72099 3.8724 0
M  V30 1371 H 133.697 5.46674 1.72687 0
M  V30 1372 H 132.094 5.90515 1.06826 0
M  V30 1373 H 133.164 4.84724 0.130749 0
M  V30 1374 N 134.507 -0.190092 1.56449 0
M  V30 1375 C 135.923 -0.54113 1.50146 0
M  V30 1376 C 136.123 -1.85603 0.784465 0
M  V30 1377 O 135.179 -2.5024 0.337051 0
M  V30 1378 C 136.492 -0.591241 2.9483 0
M  V30 1379 C 138.04 -0.679732 3.0553 0
M  V30 1380 C 138.515 -0.760908 4.51635 0
M  V30 1381 N 140.006 -0.824302 4.55806 0
M  V30 1382 C 140.741 -0.907365 5.66175 0
M  V30 1383 N 140.237 -0.952422 6.86222 0
M  V30 1384 N 142.03 -0.94494 5.541 0
M  V30 1385 H 134.181 0.67235 2.01478 0
M  V30 1386 H 136.444 0.240127 0.917084 0
M  V30 1387 H 136.15 0.305905 3.50367 0
M  V30 1388 H 136.024 -1.44422 3.48457 0
M  V30 1389 H 138.411 -1.56731 2.50039 0
M  V30 1390 H 138.492 0.199549 2.5502 0
M  V30 1391 H 138.136 0.122336 5.07753 0
M  V30 1392 H 138.066 -1.65606 4.99882 0
M  V30 1393 H 140.557 -0.798526 3.69367 0
M  V30 1394 H 140.87 -1.01645 7.66086 0
M  V30 1395 H 139.215 -0.921014 6.8887 0
M  V30 1396 H 142.406 -0.906612 4.59236 0
M  V30 1397 H 142.579 -1.00622 6.4014 0
M  V30 1398 N 135.985 -1.50799 -0.457987 0
M  V30 1399 C 137.396 -1.55152 -1.0385 0
M  V30 1400 C 137.747 -0.362719 -1.92818 0
M  V30 1401 O 136.872 0.522915 -2.09987 0
M  V30 1402 C 137.467 -2.81173 -1.89017 0
M  V30 1403 C 136.026 -2.88164 -2.42154 0
M  V30 1404 C 135.173 -2.49591 -1.20829 0
M  V30 1405 H 138.124 -1.56874 -0.240068 0
M  V30 1406 H 138.145 -2.63769 -2.74238 0
M  V30 1407 H 137.657 -3.67677 -1.24238 0
M  V30 1408 H 135.758 -2.06042 -3.10447 0
M  V30 1409 H 135.871 -3.91356 -2.76364 0
M  V30 1410 H 134.235 -2.02322 -1.54719 0
M  V30 1411 H 135.018 -3.38418 -0.576927 0
M  V30 1412 N 137.463 0.71206 -1.40597 0
M  V30 1413 C 138.874 1.29135 -1.34837 0
M  V30 1414 C 139.225 1.96186 -0.0235395 0
M  V30 1415 O 138.35 1.97768 0.878444 0
M  V30 1416 C 138.945 2.34827 -2.44217 0
M  V30 1417 C 137.504 2.88371 -2.41907 0
M  V30 1418 C 136.651 1.62202 -2.24913 0
M  V30 1419 H 139.602 0.507944 -1.50352 0
M  V30 1420 H 139.623 3.15749 -2.12327 0
M  V30 1421 H 139.135 1.85996 -3.40627 0
M  V30 1422 H 137.236 3.41422 -1.49204 0
M  V30 1423 H 137.349 3.39925 -3.37621 0
M  V30 1424 H 135.713 1.874 -1.72492 0
M  V30 1425 H 136.496 1.15391 -3.23326 0
M  V30 1426 N 138.941 1.26152 0.944643 0
M  V30 1427 C 140.357 1.03189 1.21754 0
M  V30 1428 C 140.557 -0.245112 2.00004 0
M  V30 1429 O 139.613 -0.955176 2.33736 0
M  V30 1430 C 140.926 2.26119 1.98219 0
M  V30 1431 C 142.474 2.30984 2.11224 0
M  V30 1432 C 142.949 3.53597 2.91089 0
M  V30 1433 N 144.44 3.54053 2.98664 0
M  V30 1434 C 145.175 4.45593 3.60881 0
M  V30 1435 N 144.671 5.47416 4.24626 0
M  V30 1436 N 146.464 4.33252 3.58119 0
M  V30 1437 H 138.615 2.08177 0.421437 0
M  V30 1438 H 140.878 0.914723 0.248969 0
M  V30 1439 H 140.584 3.18984 1.48128 0
M  V30 1440 H 140.458 2.3009 2.98895 0
M  V30 1441 H 142.845 1.38635 2.60508 0
M  V30 1442 H 142.926 2.31026 1.09821 0
M  V30 1443 H 142.57 4.46273 2.42493 0
M  V30 1444 H 142.5 3.50802 3.92741 0
M  V30 1445 H 144.991 2.80403 2.53343 0
M  V30 1446 H 145.304 6.13459 4.69987 0
M  V30 1447 H 143.649 5.51278 4.23223 0
M  V30 1448 H 146.84 3.52924 3.0751 0
M  V30 1449 H 147.013 5.04786 4.06319 0
M  V30 1450 N 140.419 -1.14872 1.07899 0
M  V30 1451 C 141.667 -1.85422 0.803941 0
M  V30 1452 C 141.988 -1.83051 -0.67211 0
M  V30 1453 O 141.258 -1.27532 -1.48703 0
M  V30 1454 H 139.838 -0.686537 0.294408 0
M  V30 1455 H 142.5 -1.39226 1.3639 0
M  V30 1456 H 141.596 -2.90399 1.14346 0
M  V30 1457 N 141.898 -0.863906 -1.31812 0
M  V30 1458 C 143.126 -0.486111 -2.01108 0
M  V30 1459 C 143.541 0.919755 -1.64882 0
M  V30 1460 O 142.898 1.60162 -0.874893 0
M  V30 1461 C 142.949 -0.626435 -3.56031 0
M  V30 1462 O 142.67 -1.97693 -3.90959 0
M  V30 1463 C 144.171 -0.248857 -4.42601 0
M  V30 1464 H 141.391 -0.190052 -0.643523 0
M  V30 1465 H 143.935 -1.1634 -1.68182 0
M  V30 1466 H 142.09 0.00322717 -3.874 0
M  V30 1467 H 142.504 -1.98034 -4.85678 0
M  V30 1468 H 143.978 -0.398016 -5.50563 0
M  V30 1469 H 144.455 0.811489 -4.31638 0
M  V30 1470 H 145.061 -0.853971 -4.16638 0
M  V30 1471 N 143.376 1.44774 -0.622745 0
M  V30 1472 C 144.787 1.85546 -0.207226 0
M  V30 1473 C 145.138 1.52093 1.23944 0
M  V30 1474 O 144.263 0.95492 1.94191 0
M  V30 1475 C 144.858 3.36781 -0.369313 0
M  V30 1476 C 143.417 3.76399 -0.00836847 0
M  V30 1477 C 142.564 2.68664 -0.686651 0
M  V30 1478 H 145.515 1.3536 -0.828454 0
M  V30 1479 H 145.536 3.78453 0.394162 0
M  V30 1480 H 145.048 3.61098 -1.42231 0
M  V30 1481 H 143.149 3.57698 1.04322 0
M  V30 1482 H 143.262 4.7732 -0.412584 0
M  V30 1483 H 141.626 2.54404 -0.122777 0
M  V30 1484 H 142.409 2.95815 -1.74208 0
M  V30 1485 N 144.854 0.36279 1.53368 0
M  V30 1486 C 145.764 -0.492994 2.29362 0
M  V30 1487 C 146.78 -1.09507 1.35219 0
M  V30 1488 O 147.956 -1.10662 1.68273 0
M  V30 1489 C 145.021 -1.61855 3.066 0
M  V30 1490 C 144.082 -1.04429 4.16405 0
M  V30 1491 C 143.315 -2.11621 4.89951 0
M  V30 1492 O 143.538 -3.32684 4.63333 0
M  V30 1493 O 142.472 -1.74835 5.75948 0
M  V30 1494 H 146.298 0.125331 3.03441 0
M  V30 1495 H 143.883 0.127253 1.48857 0
M  V30 1496 H 145.765 -2.27302 3.54841 0
M  V30 1497 H 144.44 -2.22233 2.3536 0
M  V30 1498 H 143.347 -0.353819 3.72423 0
M  V30 1499 H 144.68 -0.485113 4.89804 0
M  V30 1500 N 146.332 -1.57332 0.0918853 0
M  V30 1501 C 147.562 -1.98286 -0.580205 0
M  V30 1502 C 147.97 -0.969713 -1.6246 0
M  V30 1503 O 147.313 0.0493501 -1.83634 0
M  V30 1504 C 147.375 -3.35603 -1.28882 0
M  V30 1505 C 147.039 -4.55285 -0.395559 0
M  V30 1506 C 148.036 -5.18687 0.355002 0
M  V30 1507 C 145.721 -5.01314 -0.314556 0
M  V30 1508 C 147.715 -6.26484 1.17458 0
M  V30 1509 C 145.402 -6.08979 0.508677 0
M  V30 1510 C 146.4 -6.71429 1.2519 0
M  V30 1511 O 146.088 -7.77018 2.06151 0
M  V30 1512 H 145.82 -0.656678 -0.160466 0
M  V30 1513 H 148.374 -2.04721 0.16688 0
M  V30 1514 H 146.604 -3.25842 -2.08241 0
M  V30 1515 H 148.293 -3.61026 -1.85512 0
M  V30 1516 H 149.059 -4.84058 0.302134 0
M  V30 1517 H 144.938 -4.5247 -0.882697 0
M  V30 1518 H 148.482 -6.75159 1.75518 0
M  V30 1519 H 144.379 -6.4304 0.563037 0
M  V30 1520 H 145.147 -7.93991 1.98799 0
M  V30 1521 N 147.81 0.181792 -1.56548 0
M  V30 1522 C 149.056 0.901431 -1.81665 0
M  V30 1523 C 149.389 1.82347 -0.668075 0
M  V30 1524 O 148.664 1.91669 0.330615 0
M  V30 1525 C 148.947 1.70618 -3.17115 0
M  V30 1526 C 148.8 0.807964 -4.42484 0
M  V30 1527 C 150.119 2.67605 -3.49393 0
M  V30 1528 H 147.238 0.32627 -0.660846 0
M  V30 1529 H 149.88 0.168134 -1.89255 0
M  V30 1530 H 148.03 2.33133 -3.10775 0
M  V30 1531 H 149.702 0.19649 -4.60881 0
M  V30 1532 H 147.945 0.115411 -4.33646 0
M  V30 1533 H 148.616 1.40632 -5.33785 0
M  V30 1534 H 151.092 2.15218 -3.56118 0
M  V30 1535 H 149.968 3.20985 -4.45264 0
M  V30 1536 H 150.229 3.47298 -2.73563 0
M  V30 1537 N 149.288 1.51039 0.449983 0
M  V30 1538 C 150.235 1.71439 1.54523 0
M  V30 1539 C 151.205 0.555871 1.56522 0
M  V30 1540 O 152.39 0.788871 1.73728 0
M  V30 1541 C 149.53 1.83384 2.92343 0
M  V30 1542 C 148.643 3.10873 2.9997 0
M  V30 1543 C 147.778 3.13488 4.28834 0
M  V30 1544 C 146.817 4.35343 4.30282 0
M  V30 1545 N 145.954 4.35579 5.5065 0
M  V30 1546 H 150.794 2.64934 1.36433 0
M  V30 1547 H 148.331 1.31312 0.662982 0
M  V30 1548 H 150.289 1.88291 3.72293 0
M  V30 1549 H 148.919 0.933086 3.0902 0
M  V30 1550 H 147.971 3.15336 2.12761 0
M  V30 1551 H 149.283 4.00814 2.96901 0
M  V30 1552 H 148.437 3.17241 5.17149 0
M  V30 1553 H 147.176 2.21414 4.34543 0
M  V30 1554 H 146.181 4.3178 3.40362 0
M  V30 1555 H 147.406 5.28668 4.26248 0
M  V30 1556 H 145.352 3.46369 5.57104 0
M  V30 1557 H 145.269 5.19313 5.49409 0
M  V30 1558 H 146.537 4.43507 6.41032 0
M  V30 1559 N 150.766 -0.704594 1.40972 0
M  V30 1560 C 152.013 -1.46458 1.39844 0
M  V30 1561 C 152.341 -1.94499 0.00447594 0
M  V30 1562 O 151.596 -1.69275 -0.982057 0
M  V30 1563 C 151.895 -2.698 2.34399 0
M  V30 1564 C 151.561 -2.40464 3.81429 0
M  V30 1565 C 150.223 -2.32174 4.21484 0
M  V30 1566 C 152.575 -2.16086 4.74296 0
M  V30 1567 C 149.903 -1.97589 5.52427 0
M  V30 1568 C 152.255 -1.83011 6.05549 0
M  V30 1569 C 150.919 -1.7321 6.44635 0
M  V30 1570 H 150.189 -0.535927 0.511725 0
M  V30 1571 H 152.836 -0.806124 1.73706 0
M  V30 1572 H 151.141 -3.40536 1.93759 0
M  V30 1573 H 152.838 -3.27919 2.30804 0
M  V30 1574 H 149.428 -2.47808 3.49699 0
M  V30 1575 H 153.612 -2.2144 4.4416 0
M  V30 1576 H 148.868 -1.88547 5.81601 0
M  V30 1577 H 153.042 -1.63164 6.77016 0
M  V30 1578 H 150.669 -1.46179 7.46013 0
M  V30 1579 N 152.244 -1.26651 -0.937939 0
M  V30 1580 C 153.207 -1.08546 -2.01867 0
M  V30 1581 C 154.207 -0.0327327 -1.60767 0
M  V30 1582 O 155.397 -0.276427 -1.71993 0
M  V30 1583 C 152.529 -0.651711 -3.34613 0
M  V30 1584 H 153.722 -2.04502 -2.1936 0
M  V30 1585 H 151.275 -1.09294 -1.11734 0
M  V30 1586 H 152.01 0.309696 -3.22818 0
M  V30 1587 H 151.795 -1.41189 -3.65798 0
M  V30 1588 H 153.285 -0.546973 -4.14002 0
M  V30 1589 N 153.722 1.14298 -1.08507 0
M  V30 1590 C 155.138 1.37347 -0.812901 0
M  V30 1591 C 155.338 1.93052 0.577325 0
M  V30 1592 O 154.394 2.14389 1.33393 0
M  V30 1593 C 155.707 2.33359 -1.89642 0
M  V30 1594 C 157.255 2.46996 -1.92255 0
M  V30 1595 C 157.73 3.46309 -2.99724 0
M  V30 1596 N 159.221 3.53853 -2.98902 0
M  V30 1597 C 159.956 4.3055 -3.787 0
M  V30 1598 N 159.452 5.10482 -4.6838 0
M  V30 1599 N 161.245 4.25757 -3.66998 0
M  V30 1600 H 153.396 0.764867 -1.9815 0
M  V30 1601 H 155.659 0.398966 -0.859959 0
M  V30 1602 H 155.365 1.99565 -2.89597 0
M  V30 1603 H 155.239 3.33274 -1.76659 0
M  V30 1604 H 157.626 2.80081 -0.929445 0
M  V30 1605 H 157.707 1.47039 -2.09316 0
M  V30 1606 H 157.351 3.13957 -3.99241 0
M  V30 1607 H 157.281 4.46049 -2.79907 0
M  V30 1608 H 159.772 2.96812 -2.33904 0
M  V30 1609 H 160.085 5.66284 -5.25873 0
M  V30 1610 H 158.43 5.09747 -4.72422 0
M  V30 1611 H 161.621 3.62383 -2.96304 0
M  V30 1612 H 161.794 4.85279 -4.29427 0
M  V30 1613 N 155.201 0.870884 1.31352 0
M  V30 1614 C 156.133 0.28455 2.27427 0
M  V30 1615 C 157.146 -0.552927 1.53123 0
M  V30 1616 O 158.335 -0.374771 1.74521 0
M  V30 1617 C 155.435 -0.615164 3.3327 0
M  V30 1618 C 154.608 0.190079 4.36987 0
M  V30 1619 C 153.667 -0.637917 5.22319 0
M  V30 1620 O 152.693 -0.065626 5.69162 0
M  V30 1621 N 153.895 -1.94973 5.46778 0
M  V30 1622 H 156.66 1.11017 2.7838 0
M  V30 1623 H 154.221 0.732458 1.44384 0
M  V30 1624 H 156.213 -1.1748 3.87273 0
M  V30 1625 H 154.783 -1.34146 2.82354 0
M  V30 1626 H 154.003 0.931165 3.83044 0
M  V30 1627 H 155.291 0.742579 5.03352 0
M  V30 1628 H 154.689 -2.4378 5.10478 0
M  V30 1629 H 153.246 -2.45713 6.03712 0
M  V30 1630 N 156.679 -1.44442 0.630414 0
M  V30 1631 C 157.609 -2.33418 -0.0618083 0
M  V30 1632 C 158.59 -1.48165 -0.835541 0
M  V30 1633 O 159.775 -1.76886 -0.801564 0
M  V30 1634 C 156.905 -3.31222 -1.04449 0
M  V30 1635 C 155.859 -4.26288 -0.382436 0
M  V30 1636 C 155.185 -5.13954 -1.47497 0
M  V30 1637 C 156.485 -5.1744 0.710865 0
M  V30 1638 H 158.179 -2.91548 0.681184 0
M  V30 1639 H 155.725 -1.40191 0.329026 0
M  V30 1640 H 157.678 -3.92351 -1.53748 0
M  V30 1641 H 156.402 -2.71299 -1.81836 0
M  V30 1642 H 155.061 -3.6649 0.0899054 0
M  V30 1643 H 154.709 -4.50385 -2.2397 0
M  V30 1644 H 154.409 -5.7837 -1.03737 0
M  V30 1645 H 155.933 -5.77955 -1.96979 0
M  V30 1646 H 157.347 -5.72509 0.300996 0
M  V30 1647 H 155.744 -5.90455 1.07156 0
M  V30 1648 H 156.814 -4.58496 1.57829 0
M  V30 1649 N 158.157 -0.370918 -1.53173 0
M  V30 1650 C 159.12 0.460778 -2.24521 0
M  V30 1651 C 160.12 1.00536 -1.25496 0
M  V30 1652 O 161.31 0.890266 -1.49733 0
M  V30 1653 C 158.442 1.64457 -2.98608 0
M  V30 1654 H 159.635 -0.163613 -2.99453 0
M  V30 1655 H 157.188 -0.122699 -1.55818 0
M  V30 1656 H 157.923 2.30691 -2.2793 0
M  V30 1657 H 157.708 1.26099 -3.7127 0
M  V30 1658 H 159.198 2.23384 -3.5283 0
M  V30 1659 N 159.635 1.57281 -0.100228 0
M  V30 1660 C 160.883 1.94153 0.561157 0
M  V30 1661 C 161.204 0.983157 1.68401 0
M  V30 1662 O 160.474 0.0361132 1.95867 0
M  V30 1663 H 159.054 0.716791 0.210283 0
M  V30 1664 H 161.716 1.94202 -0.164765 0
M  V30 1665 H 160.812 2.96709 0.968008 0
M  V30 1666 N 161.113 -0.173488 1.56642 0
M  V30 1667 C 162.361 -0.888706 1.81512 0
M  V30 1668 C 162.682 -1.82875 0.676872 0
M  V30 1669 O 161.952 -1.93536 -0.303414 0
M  V30 1670 H 160.532 -0.331164 0.669582 0
M  V30 1671 H 163.194 -0.173823 1.94123 0
M  V30 1672 H 162.29 -1.46691 2.75478 0
M  V30 1673 N 162.591 -1.51276 -0.441967 0
M  V30 1674 C 163.521 -1.752 -1.54361 0
M  V30 1675 C 164.502 -0.601682 -1.59103 0
M  V30 1676 O 165.687 -0.843913 -1.74905 0
M  V30 1677 C 162.817 -1.87282 -2.92477 0
M  V30 1678 C 161.771 -3.02687 -3.02596 0
M  V30 1679 C 161.097 -2.99947 -4.42647 0
M  V30 1680 C 162.397 -4.4273 -2.77106 0
M  V30 1681 H 164.091 -2.67442 -1.34592 0
M  V30 1682 H 161.637 -1.28694 -0.646048 0
M  V30 1683 H 163.59 -2.02602 -3.695 0
M  V30 1684 H 162.314 -0.916844 -3.13467 0
M  V30 1685 H 160.973 -2.87065 -2.28012 0
M  V30 1686 H 160.621 -2.02136 -4.60597 0
M  V30 1687 H 160.321 -3.77439 -4.50348 0
M  V30 1688 H 161.845 -3.17354 -5.2165 0
M  V30 1689 H 163.259 -4.58727 -3.43864 0
M  V30 1690 H 161.656 -5.21893 -2.96222 0
M  V30 1691 H 162.726 -4.53087 -1.72744 0
M  V30 1692 N 164.069 0.697108 -1.41344 0
M  V30 1693 C 165.001 1.8224 -1.39001 0
M  V30 1694 C 166.014 1.60152 -0.292428 0
M  V30 1695 O 167.203 1.69684 -0.554048 0
M  V30 1696 C 164.303 3.18976 -1.14489 0
M  V30 1697 C 163.476 3.68105 -2.36258 0
M  V30 1698 C 162.535 4.83506 -2.07625 0
M  V30 1699 O 161.561 4.95201 -2.8065 0
M  V30 1700 N 162.763 5.70637 -1.06555 0
M  V30 1701 H 165.528 1.84742 -2.35988 0
M  V30 1702 H 163.089 0.87937 -1.35936 0
M  V30 1703 H 165.081 3.93801 -0.932885 0
M  V30 1704 H 163.651 3.11508 -0.261043 0
M  V30 1705 H 162.871 2.84204 -2.7317 0
M  V30 1706 H 164.159 3.97667 -3.17393 0
M  V30 1707 H 163.557 5.63817 -0.461125 0
M  V30 1708 H 162.114 6.45368 -0.913444 0
M  V30 1709 N 165.547 1.27147 0.931209 0
M  V30 1710 C 166.787 1.14511 1.69312 0
M  V30 1711 C 167.151 -0.304638 1.89568 0
M  V30 1712 O 168.352 -0.553343 2.63043 0
M  V30 1713 C 166.623 1.90349 3.02493 0
M  V30 1714 S 168.182 1.93884 3.93642 0
M  V30 1715 H 165 0.408858 0.581684 0
M  V30 1716 H 167.602 1.61006 1.10893 0
M  V30 1717 H 166.306 2.94877 2.85439 0
M  V30 1718 H 165.837 1.44333 3.65966 0
M  V30 1719 H 167.852 1.03273 4.85334 0
M  V30 1720 N 167.025 -1.13721 1.09112 0
M  V30 1721 C 167.955 -2.21148 0.749385 0
M  V30 1722 C 168.936 -1.6792 -0.271475 0
M  V30 1723 O 170.121 -1.93693 -0.140251 0
M  V30 1724 C 167.251 -3.46905 0.165659 0
M  V30 1725 C 166.205 -4.13203 1.11567 0
M  V30 1726 C 165.531 -5.33248 0.393809 0
M  V30 1727 C 166.831 -4.60912 2.45678 0
M  V30 1728 H 168.525 -2.4999 1.64758 0
M  V30 1729 H 166.071 -1.20156 0.793626 0
M  V30 1730 H 168.024 -4.21313 -0.085466 0
M  V30 1731 H 166.748 -3.17449 -0.767714 0
M  V30 1732 H 165.407 -3.40758 1.35202 0
M  V30 1733 H 165.055 -5.00054 -0.543599 0
M  V30 1734 H 164.755 -5.78552 1.02721 0
M  V30 1735 H 166.279 -6.10413 0.150908 0
M  V30 1736 H 167.693 -5.26759 2.26269 0
M  V30 1737 H 166.09 -5.16944 3.04776 0
M  V30 1738 H 167.16 -3.75603 3.06677 0
M  V30 1739 N 168.503 -0.877838 -1.30888 0
M  V30 1740 C 169.436 -0.283995 -2.26426 0
M  V30 1741 C 170.414 0.591361 -1.51465 0
M  V30 1742 O 171.598 0.54304 -1.80509 0
M  V30 1743 C 168.725 0.597129 -3.33395 0
M  V30 1744 C 167.771 -0.207937 -4.25993 0
M  V30 1745 S 168.604 -1.59158 -5.11301 0
M  V30 1746 C 169.76 -0.716791 -6.21782 0
M  V30 1747 H 169.993 -1.09383 -2.76446 0
M  V30 1748 H 167.526 -0.676828 -1.38775 0
M  V30 1749 H 169.484 1.09978 -3.95493 0
M  V30 1750 H 168.145 1.38099 -2.82113 0
M  V30 1751 H 167.338 0.464163 -5.01858 0
M  V30 1752 H 166.94 -0.642963 -3.68432 0
M  V30 1753 H 169.232 0.0692833 -6.77465 0
M  V30 1754 H 170.175 -1.44682 -6.93161 0
M  V30 1755 H 170.583 -0.280855 -5.63801 0
M  V30 1756 N 169.982 1.44106 -0.638065 0
M  V30 1757 C 171.228 2.02815 -0.15409 0
M  V30 1758 C 171.583 1.49342 1.21304 0
M  V30 1759 O 170.876 0.670699 1.79478 0
M  V30 1760 C 171.07 3.5729 -0.0887327 0
M  V30 1761 C 170.899 4.2575 -1.44799 0
M  V30 1762 C 169.669 4.62443 -2.03653 0
M  V30 1763 C 171.867 4.55746 -2.38327 0
M  V30 1764 N 169.849 5.15903 -3.32741 0
M  V30 1765 C 171.22 5.10364 -3.52036 0
M  V30 1766 C 173.275 4.37703 -2.3732 0
M  V30 1767 C 171.978 5.48837 -4.64941 0
M  V30 1768 C 174.004 4.77229 -3.49294 0
M  V30 1769 C 173.366 5.31966 -4.61726 0
M  V30 1770 H 169.465 0.775519 -0.100466 0
M  V30 1771 H 172.049 1.755 -0.843071 0
M  V30 1772 H 170.22 3.84201 0.569548 0
M  V30 1773 H 171.952 4.02671 0.404711 0
M  V30 1774 H 168.707 4.46987 -1.56523 0
M  V30 1775 H 169.131 5.47102 -3.98758 0
M  V30 1776 H 173.773 3.94671 -1.51641 0
M  V30 1777 H 171.491 5.9082 -5.51323 0
M  V30 1778 H 175.077 4.64976 -3.49698 0
M  V30 1779 H 173.957 5.61986 -5.46939 0
M  V30 1780 N 171.46 0.379036 1.52974 0
M  V30 1781 C 172.706 -0.206727 2.01744 0
M  V30 1782 C 173.039 -1.47314 1.26539 0
M  V30 1783 O 172.314 -1.91084 0.362903 0
M  V30 1784 C 172.597 -0.485066 3.56818 0
M  V30 1785 C 172.45 0.795919 4.42702 0
M  V30 1786 C 173.769 -1.28003 4.21074 0
M  V30 1787 H 170.888 -0.0736607 0.73331 0
M  V30 1788 H 173.53 0.506581 1.83122 0
M  V30 1789 H 171.68 -1.09272 3.72816 0
M  V30 1790 H 173.352 1.43307 4.38476 0
M  V30 1791 H 171.595 1.41344 4.10127 0
M  V30 1792 H 172.266 0.555947 5.49193 0
M  V30 1793 H 174.742 -0.765867 4.08991 0
M  V30 1794 H 173.618 -1.44352 5.29579 0
M  V30 1795 H 173.879 -2.29236 3.78026 0
M  V30 1796 N 172.938 -1.57226 0.108567 0
M  V30 1797 C 173.901 -2.13602 -0.831082 0
M  V30 1798 C 174.901 -1.06841 -1.20173 0
M  V30 1799 O 176.091 -1.32666 -1.12895 0
M  V30 1800 C 173.223 -2.66769 -2.12243 0
M  V30 1801 H 174.416 -2.97951 -0.341317 0
M  V30 1802 H 171.969 -1.55667 -0.14057 0
M  V30 1803 H 172.704 -1.85977 -2.65675 0
M  V30 1804 H 172.489 -3.44839 -1.86625 0
M  V30 1805 H 173.979 -3.10332 -2.79435 0
M  V30 1806 N 174.416 0.165178 -1.56732 0
M  V30 1807 C 175.379 1.18822 -1.95995 0
M  V30 1808 C 176.379 1.3685 -0.84431 0
M  V30 1809 O 177.569 1.34152 -1.11126 0
M  V30 1810 C 174.701 2.5521 -2.26011 0
M  V30 1811 H 175.894 0.851825 -2.87548 0
M  V30 1812 H 173.447 0.407857 -1.50885 0
M  V30 1813 H 174.182 2.93852 -1.37191 0
M  V30 1814 H 173.967 2.43489 -3.07336 0
M  V30 1815 H 175.457 3.28927 -2.57288 0
M  V30 1816 N 175.894 1.51508 0.433938 0
M  V30 1817 C 176.857 1.72473 1.50949 0
M  V30 1818 C 177.857 0.594725 1.49398 0
M  V30 1819 O 179.047 0.862315 1.5136 0
M  V30 1820 C 176.179 1.78431 2.90474 0
M  V30 1821 H 177.372 2.68467 1.33662 0
M  V30 1822 H 174.925 1.41549 0.662836 0
M  V30 1823 H 175.66 0.842645 3.13161 0
M  V30 1824 H 175.445 2.60558 2.93005 0
M  V30 1825 H 176.935 1.96479 3.68491 0
M  V30 1826 N 177.372 -0.689602 1.41712 0
M  V30 1827 C 178.621 -1.44534 1.40686 0
M  V30 1828 C 178.934 -1.95588 0.0213352 0
M  V30 1829 O 180.14 -2.71271 -0.111534 0
M  V30 1830 C 178.596 -2.61387 2.47396 0
M  V30 1831 C 178.204 -2.17094 3.91885 0
M  V30 1832 C 179.948 -3.38986 2.55517 0
M  V30 1833 C 177.855 -3.3094 4.90135 0
M  V30 1834 H 176.785 -0.542925 0.52321 0
M  V30 1835 H 179.436 -0.748054 1.6756 0
M  V30 1836 H 177.818 -3.33412 2.13664 0
M  V30 1837 H 178.992 -1.52318 4.34897 0
M  V30 1838 H 177.307 -1.52473 3.8748 0
M  V30 1839 H 179.904 -4.23747 3.26102 0
M  V30 1840 H 180.247 -3.84578 1.59391 0
M  V30 1841 H 180.78 -2.74021 2.8837 0
M  V30 1842 H 177.519 -2.90355 5.87685 0
M  V30 1843 H 177.039 -3.94546 4.51767 0
M  V30 1844 H 178.718 -3.9663 5.11169 0
M  V30 1845 N 178.85 -1.27639 -0.924453 0
M  V30 1846 C 180.09 -1.15407 -1.68703 0
M  V30 1847 C 180.454 0.294581 -1.89727 0
M  V30 1848 O 181.655 0.539385 -2.63333 0
M  V30 1849 C 179.926 -1.9195 -3.0148 0
M  V30 1850 S 181.485 -1.95969 -3.92609 0
M  V30 1851 H 178.303 -0.411937 -0.579507 0
M  V30 1852 H 180.905 -1.61592 -1.10038 0
M  V30 1853 H 179.609 -2.96387 -2.83871 0
M  V30 1854 H 179.14 -1.46272 -3.65196 0
M  V30 1855 H 181.155 -1.05846 -4.84779 0
M  V30 1856 N 180.328 1.1314 -1.09713 0
M  V30 1857 C 181.258 2.20748 -0.761102 0
M  V30 1858 C 182.239 1.68061 0.262566 0
M  V30 1859 O 183.424 1.93765 0.129977 0
M  V30 1860 C 180.554 3.46812 -0.184054 0
M  V30 1861 C 179.508 4.12606 -1.13757 0
M  V30 1862 C 178.834 5.33031 -0.422083 0
M  V30 1863 C 180.134 4.59603 -2.48118 0
M  V30 1864 H 181.828 2.49113 -1.66082 0
M  V30 1865 H 179.374 1.19734 -0.799987 0
M  V30 1866 H 181.327 4.21353 0.0631215 0
M  V30 1867 H 180.051 3.17851 0.750868 0
M  V30 1868 H 178.71 3.40036 -1.37007 0
M  V30 1869 H 178.358 5.00335 0.517072 0
M  V30 1870 H 178.058 5.77999 -1.05788 0
M  V30 1871 H 179.582 6.10325 -0.183277 0
M  V30 1872 H 180.996 5.25552 -2.29059 0
M  V30 1873 H 179.393 5.15321 -3.07514 0
M  V30 1874 H 180.463 3.73971 -3.08665 0
M  V30 1875 N 181.806 0.884767 1.30421 0
M  V30 1876 C 183.055 0.499164 1.95426 0
M  V30 1877 C 183.368 -0.95645 1.70621 0
M  V30 1878 O 184.574 -1.44889 2.29607 0
M  V30 1879 C 183.03 0.84177 3.49917 0
M  V30 1880 C 182.638 2.31514 3.83543 0
M  V30 1881 C 184.382 0.525355 4.21237 0
M  V30 1882 C 182.289 2.59939 5.31212 0
M  V30 1883 H 181.219 0.182944 0.73147 0
M  V30 1884 H 183.87 1.07971 1.48373 0
M  V30 1885 H 182.252 0.190311 3.95542 0
M  V30 1886 H 183.426 3.0109 3.48829 0
M  V30 1887 H 181.741 2.59907 3.25326 0
M  V30 1888 H 184.338 0.714762 5.29901 0
M  V30 1889 H 184.681 -0.535222 4.12845 0
M  V30 1890 H 185.214 1.134 3.81294 0
M  V30 1891 H 181.953 3.64736 5.44654 0
M  V30 1892 H 181.473 1.94972 5.67227 0
M  V30 1893 H 183.152 2.45429 5.98643 0
M  V30 1894 N 183.284 -1.43765 0.645699 0
M  V30 1895 C 184.247 -2.29163 -0.0409488 0
M  V30 1896 C 185.247 -1.41813 -0.757996 0
M  V30 1897 O 186.437 -1.63527 -0.600382 0
M  V30 1898 C 183.569 -3.23716 -1.06869 0
M  V30 1899 H 184.762 -2.91366 0.710345 0
M  V30 1900 H 182.315 -1.5092 0.406547 0
M  V30 1901 H 183.05 -2.66393 -1.84947 0
M  V30 1902 H 182.835 -3.88105 -0.558277 0
M  V30 1903 H 184.325 -3.87831 -1.54845 0
M  V30 1904 N 184.763 -0.387143 -1.52771 0
M  V30 1905 C 186.01 0.195735 -2.01552 0
M  V30 1906 C 186.338 1.46995 -1.27369 0
M  V30 1907 O 185.593 1.92325 -0.361879 0
M  V30 1908 C 185.892 0.512209 -3.53711 0
M  V30 1909 C 185.558 -0.670202 -4.45891 0
M  V30 1910 C 184.22 -0.994586 -4.70809 0
M  V30 1911 C 186.572 -1.46134 -5.00294 0
M  V30 1912 C 183.9 -2.11169 -5.4738 0
M  V30 1913 C 186.252 -2.56903 -5.78086 0
M  V30 1914 C 184.916 -2.89852 -6.01284 0
M  V30 1915 H 184.186 0.0716246 -0.73753 0
M  V30 1916 H 186.833 -0.524046 -1.8419 0
M  V30 1917 H 185.138 1.31329 -3.69134 0
M  V30 1918 H 186.835 0.975804 -3.88946 0
M  V30 1919 H 183.425 -0.407366 -4.2666 0
M  V30 1920 H 187.609 -1.22397 -4.80971 0
M  V30 1921 H 182.865 -2.3707 -5.63567 0
M  V30 1922 H 187.039 -3.18608 -6.19243 0
M  V30 1923 H 184.666 -3.76533 -6.60399 0
M  V30 1924 N 186.241 1.57166 -0.116904 0
M  V30 1925 C 187.204 2.14039 0.819742 0
M  V30 1926 C 188.204 1.07477 1.19605 0
M  V30 1927 O 189.394 1.33263 1.1219 0
M  V30 1928 C 186.526 2.67891 2.10826 0
M  V30 1929 H 187.719 2.98128 0.325511 0
M  V30 1930 H 185.272 1.55739 0.132312 0
M  V30 1931 H 186.007 1.87384 2.64685 0
M  V30 1932 H 185.792 3.45823 1.84793 0
M  V30 1933 H 187.282 3.11809 2.77785 0
M  V30 1934 N 187.719 -0.156864 1.56817 0
M  V30 1935 C 188.968 -0.869504 1.81996 0
M  V30 1936 C 189.281 -1.82777 0.696545 0
M  V30 1937 O 190.487 -2.58384 0.833658 0
M  V30 1938 C 188.943 -1.59679 3.22538 0
M  V30 1939 C 188.551 -0.681431 4.42787 0
M  V30 1940 C 190.295 -2.2968 3.56997 0
M  V30 1941 C 188.202 -1.40978 5.74351 0
M  V30 1942 H 187.132 -0.328438 0.678708 0
M  V30 1943 H 189.783 -0.1223 1.83092 0
M  V30 1944 H 188.165 -2.38927 3.158 0
M  V30 1945 H 189.339 0.0751166 4.60739 0
M  V30 1946 H 187.654 -0.0903431 4.16302 0
M  V30 1947 H 190.251 -2.84794 4.52544 0
M  V30 1948 H 190.594 -3.05707 2.82576 0
M  V30 1949 H 191.127 -1.57361 3.65352 0
M  V30 1950 H 187.866 -0.691561 6.51842 0
M  V30 1951 H 187.386 -2.13929 5.60352 0
M  V30 1952 H 189.065 -1.95337 6.16808 0
M  V30 1953 N 189.197 -1.51736 -0.425897 0
M  V30 1954 C 190.129 -1.70083 -1.53638 0
M  V30 1955 C 191.142 -0.581349 -1.52066 0
M  V30 1956 O 192.331 -0.856017 -1.56635 0
M  V30 1957 C 189.431 -1.71078 -2.9255 0
M  V30 1958 C 188.604 -2.99795 -3.185 0
M  V30 1959 C 187.663 -2.92825 -4.37196 0
M  V30 1960 O 186.689 -3.66756 -4.35291 0
M  V30 1961 N 187.891 -2.0946 -5.41393 0
M  V30 1962 H 190.656 -2.65882 -1.383 0
M  V30 1963 H 188.217 -1.49765 -0.614988 0
M  V30 1964 H 190.209 -1.63969 -3.69995 0
M  V30 1965 H 188.779 -0.828242 -3.01428 0
M  V30 1966 H 187.999 -3.20684 -2.2925 0
M  V30 1967 H 189.287 -3.84977 -3.32671 0
M  V30 1968 H 188.685 -1.48792 -5.45781 0
M  V30 1969 H 187.242 -2.08221 -6.17647 0
M  V30 1970 N 190.675 0.682077 -1.42076 0
M  V30 1971 C 191.638 1.77756 -1.44691 0
M  V30 1972 C 192.638 1.5726 -0.335535 0
M  V30 1973 O 193.828 1.63686 -0.596037 0
M  V30 1974 C 190.96 3.16301 -1.27146 0
M  V30 1975 H 192.153 1.76826 -2.42224 0
M  V30 1976 H 189.706 0.891012 -1.28416 0
M  V30 1977 H 190.441 3.22862 -0.305075 0
M  V30 1978 H 190.226 3.32581 -2.07683 0
M  V30 1979 H 191.716 3.96241 -1.31843 0
M  V30 1980 N 192.153 1.28127 0.917671 0
M  V30 1981 C 193.378 1.18007 1.70555 0
M  V30 1982 C 193.803 -0.258257 1.86319 0
M  V30 1983 O 193.161 -1.1869 1.37049 0
M  V30 1984 C 193.209 1.87948 3.07746 0
M  V30 1985 O 192.313 1.18427 3.9503 0
M  V30 1986 H 191.654 0.409867 0.522403 0
M  V30 1987 H 194.184 1.69379 1.1477 0
M  V30 1988 H 194.194 1.95701 3.58001 0
M  V30 1989 H 192.869 2.92573 2.95591 0
M  V30 1990 H 191.446 1.18811 3.53466 0
M  V30 1991 N 193.631 -1.12557 1.10312 0
M  V30 1992 C 194.541 -2.21841 0.763142 0
M  V30 1993 C 195.557 -1.72354 -0.238801 0
M  V30 1994 O 196.733 -2.01249 -0.0778746 0
M  V30 1995 C 193.798 -3.46131 0.198632 0
M  V30 1996 C 192.859 -4.10464 1.25769 0
M  V30 1997 C 192.092 -5.28821 0.72002 0
M  V30 1998 O 192.315 -5.6859 -0.453993 0
M  V30 1999 O 191.249 -5.83437 1.47935 0
M  V30 2000 H 195.075 -2.53312 1.67532 0
M  V30 2001 H 192.66 -1.20867 0.878157 0
M  V30 2002 H 194.542 -4.2125 -0.112401 0
M  V30 2003 H 193.217 -3.16338 -0.686419 0
M  V30 2004 H 192.124 -3.3713 1.62156 0
M  V30 2005 H 193.457 -4.44408 2.11571 0
M  V30 2006 N 195.109 -0.891671 -1.2995 0
M  V30 2007 C 196.357 -0.512486 -1.95494 0
M  V30 2008 C 196.678 0.942776 -1.70695 0
M  V30 2009 O 195.948 1.66374 -1.03424 0
M  V30 2010 H 194.528 -0.186533 -0.723336 0
M  V30 2011 H 197.19 -1.13621 -1.58355 0
M  V30 2012 H 196.286 -0.688342 -3.04415 0
M  V30 2013 N 196.587 1.43421 -0.653314 0
M  V30 2014 C 197.864 1.95361 -0.0966581 0
M  V30 2015 C 198.244 1.59461 1.38331 0
M  V30 2016 O 197.592 0.879777 2.10884 0
M  V30 2017 C 197.802 3.47311 -0.342988 0
M  V30 2018 C 199.15 4.23875 -0.24798 0
M  V30 2019 O 200.174 3.55133 -0.275553 0
M  V30 2020 O 199.033 5.4623 -0.171771 0
M  V30 2021 H 196.127 0.826945 0.00956291 0
M  V30 2022 H 198.673 1.5336 -0.726558 0
M  V30 2023 H 197.445 3.66569 -1.36906 0
M  V30 2024 H 197.068 3.9631 0.319975 0
M  V30 2025 N 198.065 0.39524 1.52563 0
M  V30 2026 C 198.995 -0.428384 2.29537 0
M  V30 2027 C 199.976 -1.05831 1.33169 0
M  V30 2028 O 201.161 -1.06995 1.62067 0
M  V30 2029 C 198.291 -1.55274 3.10656 0
M  V30 2030 C 197.245 -1.04855 4.14957 0
M  V30 2031 C 196.571 -2.26543 4.84337 0
M  V30 2032 C 197.871 -0.112324 5.22179 0
M  V30 2033 H 199.565 0.213867 2.98635 0
M  V30 2034 H 197.111 0.104298 1.43622 0
M  V30 2035 H 199.064 -2.1358 3.63265 0
M  V30 2036 H 197.788 -2.22266 2.39302 0
M  V30 2037 H 196.447 -0.487985 3.63338 0
M  V30 2038 H 196.095 -2.92059 4.09525 0
M  V30 2039 H 195.795 -1.93466 5.54837 0
M  V30 2040 H 197.319 -2.85481 5.39753 0
M  V30 2041 H 198.733 -0.603752 5.70112 0
M  V30 2042 H 197.13 0.128968 5.99961 0
M  V30 2043 H 198.2 0.837052 4.77621 0
M  V30 2044 N 199.544 -1.57102 0.125237 0
M  V30 2045 C 200.772 -1.99761 -0.538797 0
M  V30 2046 C 201.187 -1.00503 -1.59827 0
M  V30 2047 O 200.544 0.00119474 -1.825 0
M  V30 2048 C 200.595 -3.42408 -1.15927 0
M  V30 2049 O 200.316 -4.37869 -0.142143 0
M  V30 2050 C 201.817 -4.00232 -1.90602 0
M  V30 2051 H 199.037 -0.655772 -0.14214 0
M  V30 2052 H 201.581 -2.03383 0.213413 0
M  V30 2053 H 199.736 -3.39706 -1.86223 0
M  V30 2054 H 200.15 -5.21128 -0.593775 0
M  V30 2055 H 201.624 -5.02105 -2.29335 0
M  V30 2056 H 202.101 -3.39721 -2.78363 0
M  V30 2057 H 202.707 -4.06499 -1.25055 0
M  V30 2058 N 201.022 0.148545 -1.56898 0
M  V30 2059 C 202.25 0.876389 -1.87422 0
M  V30 2060 C 202.665 1.74809 -0.713256 0
M  V30 2061 O 202.022 1.79725 0.317025 0
M  V30 2062 C 202.073 1.73438 -3.17178 0
M  V30 2063 O 201.794 0.897809 -4.28802 0
M  V30 2064 C 203.295 2.56993 -3.61205 0
M  V30 2065 H 200.515 0.253489 -0.621277 0
M  V30 2066 H 203.059 0.141798 -2.04008 0
M  V30 2067 H 201.214 2.42205 -3.0235 0
M  V30 2068 H 201.628 1.48672 -5.02988 0
M  V30 2069 H 203.102 3.12773 -4.54838 0
M  V30 2070 H 203.579 3.32958 -2.86419 0
M  V30 2071 H 204.185 1.9352 -3.78722 0
M  V30 2072 N 202.5 1.5196 0.417844 0
M  V30 2073 C 203.777 1.56146 1.17803 0
M  V30 2074 C 204.157 0.337275 2.08388 0
M  V30 2075 O 203.505 -0.676447 2.18258 0
M  V30 2076 C 203.715 2.88566 1.96293 0
M  V30 2077 C 205.063 3.41244 2.52662 0
M  V30 2078 O 206.087 2.90247 2.06483 0
M  V30 2079 O 204.946 4.30273 3.36938 0
M  V30 2080 H 202.04 0.628598 0.537395 0
M  V30 2081 H 204.586 1.64283 0.425331 0
M  V30 2082 H 203.358 3.69116 1.2988 0
M  V30 2083 H 202.981 2.83681 2.78587 0
M  V30 2084 N 203.978 -0.674533 1.42435 0
M  V30 2085 C 205.255 -1.4305 1.33402 0
M  V30 2086 C 205.635 -2.11081 -0.0284674 0
M  V30 2087 O 204.983 -2.03257 -1.04397 0
M  V30 2088 C 205.193 -2.43272 2.50239 0
M  V30 2089 C 206.541 -3.07907 2.92367 0
M  V30 2090 O 207.565 -2.53599 2.50132 0
M  V30 2091 O 206.424 -4.0632 3.65467 0
M  V30 2092 H 203.518 -0.638076 0.526106 0
M  V30 2093 H 206.064 -0.703235 1.54443 0
M  V30 2094 H 204.836 -1.91803 3.41068 0
M  V30 2095 H 204.459 -3.23479 2.31186 0
M  V30 2096 N 205.456 -1.28612 -0.910864 0
M  V30 2097 C 206.404 -1.1265 -2.03501 0
M  V30 2098 C 207.398 -0.0450054 -1.6934 0
M  V30 2099 O 208.604 -0.203988 -1.7884 0
M  V30 2100 H 204.979 -0.347639 -0.666822 0
M  V30 2101 H 206.95 -2.07849 -2.14106 0
M  V30 2102 C 205.699 -0.808143 -3.38178 0
M  V30 2103 H 205.022 -1.63231 -3.6496 0
M  V30 2104 H 206.462 -0.736426 -4.17556 0
M  V30 2105 C 204.921 0.488226 -3.33344 0
M  V30 2106 O 205.451 1.51766 -3.71927 0
M  V30 2107 N 203.657 0.490009 -2.86439 0
M  V30 2108 H 203.204 -0.348161 -2.55236 0
M  V30 2109 H 203.162 1.35741 -2.83587 0
M  V30 2110 N 206.934 1.1197 -1.10907 0
M  V30 2111 C 207.864 2.19928 -0.784473 0
M  V30 2112 C 208.845 1.6833 0.244726 0
M  V30 2113 O 210.03 1.93892 0.109418 0
M  V30 2114 C 207.16 3.46597 -0.220827 0
M  V30 2115 C 206.114 4.11376 -1.18127 0
M  V30 2116 C 205.44 5.32554 -0.478594 0
M  V30 2117 C 206.74 4.56945 -2.52979 0
M  V30 2118 H 208.434 2.47337 -1.68715 0
M  V30 2119 H 205.98 1.18879 -0.812642 0
M  V30 2120 H 207.933 4.21396 0.0184278 0
M  V30 2121 H 206.657 3.1863 0.717113 0
M  V30 2122 H 205.316 3.38564 -1.40606 0
M  V30 2123 H 204.964 5.00856 0.463976 0
M  V30 2124 H 204.664 5.76844 -1.11912 0
M  V30 2125 H 206.188 6.10096 -0.248 0
M  V30 2126 H 207.602 5.23093 -2.3462 0
M  V30 2127 H 205.999 5.1203 -3.12962 0
M  V30 2128 H 207.069 3.70676 -3.12614 0
M  V30 2129 N 208.412 0.89855 1.29475 0
M  V30 2130 C 209.642 0.538479 1.99459 0
M  V30 2131 C 210.05 -0.880922 1.67441 0
M  V30 2132 O 209.393 -1.59283 0.915127 0
M  V30 2133 C 209.455 0.649564 3.53583 0
M  V30 2134 C 209.119 2.03573 4.09154 0
M  V30 2135 C 210.116 3.00675 4.24135 0
M  V30 2136 C 207.801 2.3448 4.44212 0
M  V30 2137 C 209.795 4.26809 4.73405 0
M  V30 2138 C 207.482 3.60857 4.93179 0
M  V30 2139 C 208.48 4.56836 5.0773 0
M  V30 2140 O 208.168 5.80969 5.55635 0
M  V30 2141 H 207.9 0.205372 0.644048 0
M  V30 2142 H 210.454 1.20958 1.66007 0
M  V30 2143 H 208.684 -0.0785592 3.8662 0
M  V30 2144 H 210.373 0.29881 4.04799 0
M  V30 2145 H 211.139 2.78112 3.97339 0
M  V30 2146 H 207.018 1.60534 4.32145 0
M  V30 2147 H 210.562 5.0173 4.84678 0
M  V30 2148 H 206.459 3.83251 5.19412 0
M  V30 2149 H 207.227 5.83542 5.73952 0
M  V30 2150 N 209.89 -1.43072 0.660911 0
M  V30 2151 C 210.82 -2.33497 -0.0122829 0
M  V30 2152 C 211.801 -1.49903 -0.803925 0
M  V30 2153 O 212.986 -1.78546 -0.763864 0
M  V30 2154 C 210.116 -3.33363 -0.973994 0
M  V30 2155 C 209.07 -4.27003 -0.291928 0
M  V30 2156 C 208.396 -5.16967 -1.36562 0
M  V30 2157 C 209.696 -5.15816 0.820462 0
M  V30 2158 H 211.39 -2.90038 0.742873 0
M  V30 2159 H 208.936 -1.39461 0.358688 0
M  V30 2160 H 210.889 -3.95524 -1.45392 0
M  V30 2161 H 209.613 -2.75095 -1.7604 0
M  V30 2162 H 208.272 -3.66217 0.167623 0
M  V30 2163 H 207.92 -4.55034 -2.14366 0
M  V30 2164 H 207.62 -5.80441 -0.914454 0
M  V30 2165 H 209.144 -5.82003 -1.84675 0
M  V30 2166 H 210.558 -5.71742 0.422366 0
M  V30 2167 H 208.955 -5.8805 1.19656 0
M  V30 2168 H 210.025 -4.55045 1.67518 0
M  V30 2169 N 211.368 -0.403325 -1.52352 0
M  V30 2170 C 212.331 0.413051 -2.25447 0
M  V30 2171 C 213.331 0.978513 -1.276 0
M  V30 2172 O 214.521 0.858305 -1.51587 0
M  V30 2173 C 211.653 1.58087 -3.02029 0
M  V30 2174 H 212.846 -0.227094 -2.99039 0
M  V30 2175 H 210.399 -0.155722 -1.55522 0
M  V30 2176 H 211.134 2.25804 -2.32772 0
M  V30 2177 H 210.919 1.18195 -3.73861 0
M  V30 2178 H 212.409 2.1585 -3.57489 0
M  V30 2179 N 212.846 1.57033 -0.133567 0
M  V30 2180 C 214.095 1.94861 0.520768 0
M  V30 2181 C 214.408 1.02012 1.66892 0
M  V30 2182 O 215.614 1.29365 2.38699 0
M  V30 2183 C 214.07 3.46362 0.977809 0
M  V30 2184 C 213.678 4.47773 -0.142674 0
M  V30 2185 C 215.422 3.93083 1.60269 0
M  V30 2186 C 213.329 5.90468 0.331883 0
M  V30 2187 H 212.259 0.727453 0.198315 0
M  V30 2188 H 214.91 1.82227 -0.215759 0
M  V30 2189 H 213.292 3.54282 1.7692 0
M  V30 2190 H 214.466 4.51536 -0.919317 0
M  V30 2191 H 212.781 4.10891 -0.675124 0
M  V30 2192 H 215.378 4.97121 1.96914 0
M  V30 2193 H 215.721 3.33876 2.48662 0
M  V30 2194 H 216.254 3.88025 0.876453 0
M  V30 2195 H 212.993 6.53463 -0.516341 0
M  V30 2196 H 212.513 5.90094 1.07469 0
M  V30 2197 H 214.192 6.42179 0.788332 0
M  V30 2198 N 214.325 -0.140222 1.56975 0
M  V30 2199 C 215.288 -1.15689 1.97861 0
M  V30 2200 C 216.288 -1.3549 0.865974 0
M  V30 2201 O 217.478 -1.32367 1.13246 0
M  V30 2202 C 214.61 -2.51582 2.30042 0
M  V30 2203 H 215.803 -0.805971 2.88867 0
M  V30 2204 H 213.356 -0.383801 1.51515 0
M  V30 2205 H 214.091 -2.91632 1.41849 0
M  V30 2206 H 213.876 -2.38569 3.11171 0
M  V30 2207 H 215.366 -3.24792 2.62488 0
M  V30 2208 N 215.803 -1.52179 -0.40978 0
M  V30 2209 C 216.733 -1.78435 -1.5061 0
M  V30 2210 C 217.714 -0.635295 -1.57791 0
M  V30 2211 O 218.899 -0.880823 -1.73076 0
M  V30 2212 C 216.029 -1.93444 -2.88439 0
M  V30 2213 C 214.983 -3.09038 -2.96108 0
M  V30 2214 C 214.309 -3.09268 -4.36185 0
M  V30 2215 C 215.609 -4.48508 -2.67652 0
M  V30 2216 H 217.303 -2.70237 -1.28889 0
M  V30 2217 H 214.849 -1.30036 -0.618605 0
M  V30 2218 H 216.802 -2.10394 -3.65119 0
M  V30 2219 H 215.526 -0.983129 -3.11452 0
M  V30 2220 H 214.185 -2.91837 -2.21872 0
M  V30 2221 H 213.833 -2.11861 -4.56206 0
M  V30 2222 H 213.533 -3.86907 -4.42241 0
M  V30 2223 H 215.057 -3.28348 -5.14801 0
M  V30 2224 H 216.471 -4.65918 -3.34056 0
M  V30 2225 H 214.868 -5.28059 -2.85085 0
M  V30 2226 H 215.938 -4.56649 -1.63095 0
M  V30 2227 N 217.281 0.66697 -1.42791 0
M  V30 2228 C 218.53 1.42278 -1.42968 0
M  V30 2229 C 218.843 1.9553 -0.0524489 0
M  V30 2230 O 220.049 2.71414 0.068363 0
M  V30 2231 C 218.505 2.57418 -2.51524 0
M  V30 2232 C 218.113 2.10832 -3.9529 0
M  V30 2233 C 219.857 3.34878 -2.60877 0
M  V30 2234 C 217.764 3.23101 -4.95338 0
M  V30 2235 H 216.694 0.534533 -0.531781 0
M  V30 2236 H 219.345 0.721302 -1.68729 0
M  V30 2237 H 217.727 3.29971 -2.18941 0
M  V30 2238 H 218.901 1.4538 -4.37266 0
M  V30 2239 H 217.216 1.46289 -3.89857 0
M  V30 2240 H 219.813 4.18505 -3.32802 0
M  V30 2241 H 220.156 3.81993 -1.6549 0
M  V30 2242 H 220.689 2.69398 -2.92693 0
M  V30 2243 H 217.428 2.80969 -5.9223 0
M  V30 2244 H 216.948 3.87309 -4.57987 0
M  V30 2245 H 218.627 3.88447 -5.17415 0
M  V30 2246 N 218.759 1.29093 0.90403 0
M  V30 2247 C 219.722 1.1386 1.98919 0
M  V30 2248 C 220.722 0.0753457 1.60623 0
M  V30 2249 O 221.912 0.321931 1.71199 0
M  V30 2250 C 219.044 0.740198 3.32767 0
M  V30 2251 H 220.237 2.10246 2.13861 0
M  V30 2252 H 217.79 1.12218 1.08797 0
M  V30 2253 H 218.525 -0.223997 3.23525 0
M  V30 2254 H 218.31 1.50838 3.61926 0
M  V30 2255 H 219.8 0.656546 4.12407 0
M  V30 2256 N 220.237 -1.11381 1.11499 0
M  V30 2257 C 221.483 -1.83403 0.865512 0
M  V30 2258 C 221.816 -1.84459 -0.607329 0
M  V30 2259 O 221.091 -1.29811 -1.44842 0
M  V30 2260 C 221.374 -3.30552 1.42855 0
M  V30 2261 C 221.227 -3.37886 2.96906 0
M  V30 2262 C 222.546 -4.26643 1.08 0
M  V30 2263 H 219.665 -0.665879 0.31587 0
M  V30 2264 H 222.307 -1.30601 1.37998 0
M  V30 2265 H 220.457 -3.75648 0.990985 0
M  V30 2266 H 222.129 -3.01343 3.49271 0
M  V30 2267 H 220.372 -2.78088 3.32941 0
M  V30 2268 H 221.043 -4.41458 3.31389 0
M  V30 2269 H 223.519 -3.89729 1.45775 0
M  V30 2270 H 222.395 -5.27986 1.50072 0
M  V30 2271 H 222.656 -4.42099 -0.00915037 0
M  V30 2272 N 221.715 -0.905404 -1.28997 0
M  V30 2273 C 222.961 -0.535039 -1.95615 0
M  V30 2274 C 223.294 0.917404 -1.71165 0
M  V30 2275 O 222.569 1.65123 -1.02785 0
M  V30 2276 C 222.852 -0.834918 -3.50287 0
M  V30 2277 C 222.705 -2.33948 -3.84172 0
M  V30 2278 C 224.024 -0.325318 -4.38896 0
M  V30 2279 H 221.143 -0.195861 -0.710498 0
M  V30 2280 H 223.785 -1.13313 -1.52513 0
M  V30 2281 H 221.935 -0.325904 -3.87131 0
M  V30 2282 H 223.607 -2.91847 -3.57243 0
M  V30 2283 H 221.85 -2.79789 -3.31513 0
M  V30 2284 H 222.521 -2.49987 -4.92149 0
M  V30 2285 H 224.997 -0.761256 -4.09077 0
M  V30 2286 H 223.873 -0.564295 -5.45992 0
M  V30 2287 H 224.134 0.774144 -4.35269 0
M  V30 2288 N 223.193 1.4272 -0.668489 0
M  V30 2289 C 224.439 2.01923 -0.188419 0
M  V30 2290 C 224.772 1.52704 1.19979 0
M  V30 2291 O 224.047 0.726566 1.8042 0
M  V30 2292 C 224.33 3.59451 -0.216085 0
M  V30 2293 C 224.183 4.18864 -1.6393 0
M  V30 2294 C 225.502 4.37903 0.439179 0
M  V30 2295 H 222.621 0.733674 -0.0699412 0
M  V30 2296 H 225.263 1.69822 -0.852076 0
M  V30 2297 H 223.413 3.86929 0.349012 0
M  V30 2298 H 225.085 4.02362 -2.25616 0
M  V30 2299 H 223.328 3.74933 -2.18193 0
M  V30 2300 H 223.999 5.27987 -1.61039 0
M  V30 2301 H 226.475 4.16079 -0.0417878 0
M  V30 2302 H 225.351 5.47519 0.389157 0
M  V30 2303 H 225.612 4.15303 1.51577 0
M  V30 2304 N 224.671 0.411399 1.52136 0
M  V30 2305 C 225.917 -0.163888 2.02137 0
M  V30 2306 C 226.25 -1.44597 1.29636 0
M  V30 2307 O 225.525 -1.90272 0.403353 0
M  V30 2308 C 225.808 -0.40927 3.57767 0
M  V30 2309 C 225.661 0.889643 4.40914 0
M  V30 2310 C 226.98 -1.19042 4.23694 0
M  V30 2311 H 224.099 -0.0580896 0.734707 0
M  V30 2312 H 226.741 0.54531 1.82007 0
M  V30 2313 H 224.891 -1.0134 3.7505 0
M  V30 2314 H 226.563 1.52575 4.35337 0
M  V30 2315 H 224.806 1.50011 4.07037 0
M  V30 2316 H 225.477 0.672314 5.4789 0
M  V30 2317 H 227.953 -0.678942 4.10524 0
M  V30 2318 H 226.829 -1.33086 5.32522 0
M  V30 2319 H 227.09 -2.21166 3.82803 0
M  V30 2320 N 226.149 -1.5696 0.141893 0
M  V30 2321 C 227.377 -2.00322 -0.517579 0
M  V30 2322 C 227.792 -1.02193 -1.58752 0
M  V30 2323 O 227.149 -0.0181619 -1.82491 0
M  V30 2324 C 227.2 -3.43618 -1.12289 0
M  V30 2325 O 226.921 -4.37995 -0.0956929 0
M  V30 2326 C 228.422 -4.02231 -1.86347 0
M  V30 2327 H 225.642 -0.657243 -0.135177 0
M  V30 2328 H 228.186 -2.03146 0.234973 0
M  V30 2329 H 226.341 -3.41662 -1.82609 0
M  V30 2330 H 226.755 -5.21729 -0.538469 0
M  V30 2331 H 228.229 -5.04509 -2.23997 0
M  V30 2332 H 228.706 -3.42655 -2.74744 0
M  V30 2333 H 229.312 -4.07802 -1.20737 0
M  V30 2334 N 227.627 0.131896 -1.57047 0
M  V30 2335 C 228.875 0.840269 -1.83804 0
M  V30 2336 C 229.196 1.81017 -0.72512 0
M  V30 2337 O 228.466 1.94272 0.251995 0
M  V30 2338 H 227.046 0.313294 -0.678127 0
M  V30 2339 H 229.708 0.122294 -1.94516 0
M  V30 2340 H 228.804 1.39335 -2.79271 0
M  V30 2341 N 229.106 1.52395 0.401703 0
M  V30 2342 C 230.346 1.68498 1.15705 0
M  V30 2343 C 230.71 0.409748 1.87577 0
M  V30 2344 O 231.911 0.446983 2.65058 0
M  V30 2345 C 230.182 2.87789 2.11924 0
M  V30 2346 S 231.741 3.24415 2.95466 0
M  V30 2347 H 228.559 0.593267 0.391862 0
M  V30 2348 H 231.161 1.90408 0.443282 0
M  V30 2349 H 229.865 3.7884 1.57824 0
M  V30 2350 H 229.396 2.68175 2.87829 0
M  V30 2351 H 231.411 2.73614 4.13944 0
M  V30 2352 N 230.584 -0.659388 1.43143 0
M  V30 2353 C 231.831 -1.41935 1.44433 0
M  V30 2354 C 232.159 -1.94387 0.0663522 0
M  V30 2355 O 231.414 -1.72314 -0.927706 0
M  V30 2356 C 231.713 -2.62206 2.42864 0
M  V30 2357 C 231.379 -2.28208 3.88886 0
M  V30 2358 C 230.041 -2.18647 4.28657 0
M  V30 2359 C 232.393 -2.00887 4.8093 0
M  V30 2360 C 229.721 -1.79914 5.58433 0
M  V30 2361 C 232.073 -1.63653 6.11065 0
M  V30 2362 C 230.737 -1.52614 6.49819 0
M  V30 2363 H 230.007 -0.519376 0.528517 0
M  V30 2364 H 232.654 -0.750453 1.76183 0
M  V30 2365 H 230.959 -3.34199 2.04495 0
M  V30 2366 H 232.656 -3.2041 2.41119 0
M  V30 2367 H 229.246 -2.36557 3.57406 0
M  V30 2368 H 233.43 -2.07198 4.5098 0
M  V30 2369 H 228.686 -1.69948 5.87305 0
M  V30 2370 H 232.86 -1.41543 6.81864 0
M  V30 2371 H 230.487 -1.22371 7.50286 0
M  V30 2372 N 232.062 -1.29571 -0.897171 0
M  V30 2373 C 233.31 -1.17456 -1.64464 0
M  V30 2374 C 233.631 0.273698 -1.9307 0
M  V30 2375 O 232.901 1.18684 -1.55855 0
M  V30 2376 H 231.481 -0.431706 -0.609622 0
M  V30 2377 H 234.143 -1.62531 -1.07562 0
M  V30 2378 H 233.239 -1.72648 -2.59998 0
M  V30 2379 N 233.54 1.10788 -1.12088 0
M  V30 2380 C 234.77 1.86191 -0.895351 0
M  V30 2381 C 235.178 1.80763 0.558702 0
M  V30 2382 O 234.521 1.19188 1.39785 0
M  V30 2383 C 234.583 3.35659 -1.28737 0
M  V30 2384 C 234.247 3.64849 -2.75198 0
M  V30 2385 C 235.244 3.61757 -3.734 0
M  V30 2386 C 232.929 3.93641 -3.12013 0
M  V30 2387 C 234.923 3.87045 -5.06434 0
M  V30 2388 C 232.61 4.18585 -4.4523 0
M  V30 2389 C 233.608 4.15277 -5.42249 0
M  V30 2390 O 233.296 4.3959 -6.73065 0
M  V30 2391 H 233.028 0.595425 -0.32007 0
M  V30 2392 H 235.582 1.40992 -1.49367 0
M  V30 2393 H 233.812 3.81497 -0.63224 0
M  V30 2394 H 235.501 3.92441 -1.03656 0
M  V30 2395 H 236.267 3.39557 -3.46303 0
M  V30 2396 H 232.146 3.95348 -2.37109 0
M  V30 2397 H 235.69 3.84378 -5.82151 0
M  V30 2398 H 231.587 4.40264 -4.72057 0
M  V30 2399 H 232.355 4.57123 -6.78956 0
M  V30 2400 N 235.018 0.912232 1.28515 0
M  V30 2401 C 236.248 0.559604 1.98877 0
M  V30 2402 C 236.656 -0.863113 1.68366 0
M  V30 2403 O 235.999 -1.58304 0.931969 0
M  V30 2404 C 236.061 0.68703 3.52874 0
M  V30 2405 C 235.725 2.07901 4.06972 0
M  V30 2406 C 236.722 3.05157 4.20922 0
M  V30 2407 C 234.407 2.39178 4.417 0
M  V30 2408 C 236.401 4.31806 4.68852 0
M  V30 2409 C 234.088 3.66068 4.89324 0
M  V30 2410 C 235.086 4.62195 5.02856 0
M  V30 2411 O 234.774 5.86829 5.49442 0
M  V30 2412 H 234.506 0.212191 0.641834 0
M  V30 2413 H 237.06 1.22712 1.64715 0
M  V30 2414 H 235.29 -0.0375486 3.86682 0
M  V30 2415 H 236.979 0.341727 4.04459 0
M  V30 2416 H 237.745 2.82311 3.94367 0
M  V30 2417 H 233.624 1.65109 4.30418 0
M  V30 2418 H 237.168 5.06842 4.79329 0
M  V30 2419 H 233.065 3.88739 5.15318 0
M  V30 2420 H 233.833 5.89597 5.6773 0
M  V30 2421 N 236.496 -1.42363 0.676048 0
M  V30 2422 C 237.428 -2.29164 -0.0404605 0
M  V30 2423 C 238.441 -1.43747 -0.764245 0
M  V30 2424 O 239.63 -1.67453 -0.618195 0
M  V30 2425 C 236.73 -3.21196 -1.08103 0
M  V30 2426 C 235.903 -4.35273 -0.430812 0
M  V30 2427 C 234.962 -5.08017 -1.37133 0
M  V30 2428 O 233.988 -5.62494 -0.87116 0
M  V30 2429 N 235.19 -5.13647 -2.70456 0
M  V30 2430 H 237.955 -2.91298 0.704667 0
M  V30 2431 H 235.516 -1.53303 0.520559 0
M  V30 2432 H 237.508 -3.66728 -1.71152 0
M  V30 2433 H 236.078 -2.60505 -1.72788 0
M  V30 2434 H 235.298 -3.92372 0.379209 0
M  V30 2435 H 236.586 -5.08795 0.0221132 0
M  V30 2436 H 235.984 -4.708 -3.1363 0
M  V30 2437 H 234.541 -5.62821 -3.28749 0
M  V30 2438 N 237.974 -0.419461 -1.51915 0
M  V30 2439 C 238.884 0.407528 -2.31033 0
M  V30 2440 C 239.9 1.04413 -1.3919 0
M  V30 2441 O 241.076 1.0434 -1.72265 0
M  V30 2442 C 238.141 1.50365 -3.12396 0
M  V30 2443 C 237.202 0.889029 -4.19994 0
M  V30 2444 C 236.435 1.93291 -4.97468 0
M  V30 2445 O 236.658 3.15259 -4.75361 0
M  V30 2446 O 235.592 1.53339 -5.8204 0
M  V30 2447 H 239.418 -0.237865 -3.02767 0
M  V30 2448 H 237.003 -0.182413 -1.48282 0
M  V30 2449 H 238.885 2.13975 -3.63032 0
M  V30 2450 H 237.56 2.13345 -2.43445 0
M  V30 2451 H 236.467 0.215353 -3.7348 0
M  V30 2452 H 237.8 0.302991 -4.91267 0
M  V30 2453 N 239.452 1.56882 -0.150215 0
M  V30 2454 C 240.699 1.96228 0.500093 0
M  V30 2455 C 241.027 1.03522 1.64661 0
M  V30 2456 O 240.282 0.0650683 1.95592 0
M  V30 2457 C 240.581 3.41801 1.04437 0
M  V30 2458 C 240.247 4.50897 0.0159671 0
M  V30 2459 C 238.909 4.8046 -0.266731 0
M  V30 2460 C 241.261 5.16703 -0.683192 0
M  V30 2461 C 238.589 5.73135 -1.25434 0
M  V30 2462 C 240.941 6.10441 -1.65964 0
M  V30 2463 C 239.605 6.38382 -1.95 0
M  V30 2464 H 238.875 0.718048 0.182997 0
M  V30 2465 H 241.522 1.90019 -0.237724 0
M  V30 2466 H 239.827 3.44857 1.85959 0
M  V30 2467 H 241.524 3.69573 1.55618 0
M  V30 2468 H 238.114 4.27891 0.246485 0
M  V30 2469 H 242.298 4.93993 -0.477983 0
M  V30 2470 H 237.554 5.93074 -1.48571 0
M  V30 2471 H 241.728 6.60507 -2.20689 0
M  V30 2472 H 239.355 7.09996 -2.71679 0
M  V30 2473 N 240.93 -0.123565 1.57115 0
M  V30 2474 C 241.877 -1.15177 2.00007 0
M  V30 2475 C 242.847 -1.41403 0.871454 0
M  V30 2476 O 244.032 -1.53346 1.13533 0
M  V30 2477 C 241.172 -2.47436 2.40561 0
M  V30 2478 C 240.285 -2.28184 3.66819 0
M  V30 2479 C 239.42 -3.53641 3.96373 0
M  V30 2480 C 238.459 -3.29528 5.15827 0
M  V30 2481 N 237.596 -4.47175 5.41275 0
M  V30 2482 H 242.436 -0.779008 2.87638 0
M  V30 2483 H 239.973 -0.373166 1.42288 0
M  V30 2484 H 241.931 -3.24584 2.62109 0
M  V30 2485 H 240.561 -2.82614 1.55978 0
M  V30 2486 H 239.613 -1.41976 3.52912 0
M  V30 2487 H 240.925 -2.0634 4.5412 0
M  V30 2488 H 240.079 -4.39209 4.18545 0
M  V30 2489 H 238.818 -3.78512 3.07538 0
M  V30 2490 H 237.823 -2.42349 4.93505 0
M  V30 2491 H 239.048 -3.06031 6.06236 0
M  V30 2492 H 236.994 -4.72175 4.55397 0
M  V30 2493 H 236.911 -4.28419 6.22891 0
M  V30 2494 H 238.179 -5.3389 5.67963 0
M  V30 2495 N 242.408 -1.52605 -0.393616 0
M  V30 2496 C 243.633 -1.71592 -1.16495 0
M  V30 2497 C 244.058 -0.43133 -1.83088 0
M  V30 2498 O 243.416 0.612523 -1.7064 0
M  V30 2499 C 243.464 -2.86318 -2.19213 0
M  V30 2500 O 242.568 -2.52969 -3.257 0
M  V30 2501 H 241.909 -0.570734 -0.33935 0
M  V30 2502 H 244.439 -1.99377 -0.459324 0
M  V30 2503 H 244.449 -3.1168 -2.63286 0
M  V30 2504 H 243.124 -3.79511 -1.7013 0
M  V30 2505 H 241.701 -2.38332 -2.86797 0
M  V30 2506 N 243.887 0.651787 -1.4349 0
M  V30 2507 C 245.115 1.43937 -1.48626 0
M  V30 2508 C 245.53 1.8851 -0.104587 0
M  V30 2509 O 244.887 1.5958 0.885464 0
M  V30 2510 C 244.938 2.6734 -2.43334 0
M  V30 2511 O 244.659 2.24631 -3.76128 0
M  V30 2512 C 246.16 3.60683 -2.57726 0
M  V30 2513 H 243.38 0.44213 -0.504739 0
M  V30 2514 H 245.924 0.798944 -1.88248 0
M  V30 2515 H 244.079 3.2752 -2.06904 0
M  V30 2516 H 244.493 3.04485 -4.2707 0
M  V30 2517 H 245.967 4.43933 -3.28067 0
M  V30 2518 H 246.444 4.08126 -1.62265 0
M  V30 2519 H 247.05 3.06384 -2.94973 0
M  V30 2520 N 245.365 1.30045 0.890287 0
M  V30 2521 C 246.313 1.15873 2.01683 0
M  V30 2522 C 247.307 0.0719403 1.69247 0
M  V30 2523 O 248.513 0.232414 1.78493 0
M  V30 2524 H 244.888 0.358203 0.661207 0
M  V30 2525 H 246.859 2.11229 2.10772 0
M  V30 2526 C 245.608 0.861842 3.36849 0
M  V30 2527 H 244.931 1.69016 3.62317 0
M  V30 2528 H 246.371 0.802762 4.16331 0
M  V30 2529 C 244.83 -0.435132 3.34078 0
M  V30 2530 O 245.36 -1.4583 3.74295 0
M  V30 2531 N 243.566 -0.444377 2.87182 0
M  V30 2532 H 243.113 0.388723 2.5465 0
M  V30 2533 H 243.071 -1.31213 2.85711 0
M  V30 2534 N 246.843 -1.10192 1.12674 0
M  V30 2535 C 248.092 -1.81573 0.8783 0
M  V30 2536 C 248.405 -1.86249 -0.597557 0
M  V30 2537 O 249.611 -2.5386 -0.962681 0
M  V30 2538 C 248.067 -3.26149 1.52167 0
M  V30 2539 C 247.675 -3.29763 3.03249 0
M  V30 2540 C 249.419 -4.0234 1.3536 0
M  V30 2541 C 247.326 -4.68815 3.60508 0
M  V30 2542 H 246.256 -0.680394 0.324931 0
M  V30 2543 H 248.907 -1.23902 1.35353 0
M  V30 2544 H 247.289 -3.83832 0.974104 0
M  V30 2545 H 248.463 -2.8189 3.6452 0
M  V30 2546 H 246.778 -2.67059 3.19481 0
M  V30 2547 H 249.375 -5.05058 1.75559 0
M  V30 2548 H 249.718 -4.15235 0.297554 0
M  V30 2549 H 250.251 -3.51079 1.87052 0
M  V30 2550 H 246.99 -4.61121 4.65884 0
M  V30 2551 H 246.51 -5.17045 3.04014 0
M  V30 2552 H 248.189 -5.37785 3.59717 0
M  V30 2553 N 248.321 -0.919034 -1.28029 0
M  V30 2554 C 249.57 -0.550802 -1.94034 0
M  V30 2555 C 249.883 0.910877 -1.73096 0
M  V30 2556 O 251.089 1.3875 -2.33368 0
M  V30 2557 C 249.545 -0.934249 -3.47563 0
M  V30 2558 C 249.153 -2.41602 -3.7727 0
M  V30 2559 C 250.897 -0.636854 -4.19696 0
M  V30 2560 C 248.804 -2.73932 -5.24133 0
M  V30 2561 H 247.734 -0.202273 -0.726362 0
M  V30 2562 H 250.385 -1.11867 -1.45458 0
M  V30 2563 H 248.767 -0.295115 -3.94899 0
M  V30 2564 H 249.941 -3.10233 -3.40723 0
M  V30 2565 H 248.256 -2.68441 -3.18321 0
M  V30 2566 H 250.853 -0.855005 -5.2782 0
M  V30 2567 H 251.196 0.425575 -4.14119 0
M  V30 2568 H 251.729 -1.23469 -3.78154 0
M  V30 2569 H 248.468 -3.79049 -5.34792 0
M  V30 2570 H 247.988 -2.09942 -5.61858 0
M  V30 2571 H 249.667 -2.61215 -5.91925 0
M  V30 2572 N 249.799 1.42003 -0.683588 0
M  V30 2573 C 250.762 2.29191 -0.0198243 0
M  V30 2574 C 251.762 1.43773 0.72013 0
M  V30 2575 O 252.952 1.65061 0.556815 0
M  V30 2576 C 250.084 3.26435 0.982487 0
M  V30 2577 H 251.277 2.8938 -0.787345 0
M  V30 2578 H 248.83 1.49789 -0.446418 0
M  V30 2579 H 249.565 2.71203 1.77819 0
M  V30 2580 H 249.35 3.89449 0.455182 0
M  V30 2581 H 250.84 3.918 1.44508 0
M  V30 2582 N 251.277 0.427512 1.51691 0
M  V30 2583 C 252.502 -0.143601 2.06902 0
M  V30 2584 C 252.927 -1.36536 1.29382 0
M  V30 2585 O 252.285 -1.78289 0.329043 0
M  V30 2586 C 252.333 -0.454207 3.57728 0
M  V30 2587 O 251.437 -1.54228 3.82475 0
M  V30 2588 H 250.778 -0.00617128 0.663971 0
M  V30 2589 H 253.308 0.606014 1.95419 0
M  V30 2590 H 253.318 -0.707525 4.01818 0
M  V30 2591 H 251.993 0.438812 4.13579 0
M  V30 2592 H 250.57 -1.2797 3.50254 0
M  V30 2593 N 252.755 -1.56801 0.158532 0
M  V30 2594 C 254.002 -1.9649 -0.489679 0
M  V30 2595 C 254.33 -1.04394 -1.6411 0
M  V30 2596 O 253.585 -0.0754401 -1.95555 0
M  V30 2597 C 253.884 -3.4235 -1.02623 0
M  V30 2598 C 253.55 -4.50899 0.00794526 0
M  V30 2599 C 252.212 -4.80312 0.292207 0
M  V30 2600 C 254.564 -5.16333 0.710584 0
M  V30 2601 C 251.892 -5.72461 1.28472 0
M  V30 2602 C 254.244 -6.09553 1.69199 0
M  V30 2603 C 252.908 -6.37339 1.98383 0
M  V30 2604 H 252.178 -0.719009 -0.179186 0
M  V30 2605 H 254.825 -1.8989 0.247798 0
M  V30 2606 H 253.13 -3.45838 -1.84128 0
M  V30 2607 H 254.827 -3.70393 -1.53656 0
M  V30 2608 H 251.417 -4.28015 -0.22379 0
M  V30 2609 H 255.601 -4.93732 0.504174 0
M  V30 2610 H 250.857 -5.92278 1.51714 0
M  V30 2611 H 255.031 -6.59327 2.24189 0
M  V30 2612 H 252.658 -7.08546 2.7544 0
M  V30 2613 N 254.233 0.115231 -1.57178 0
M  V30 2614 C 255.18 1.14115 -2.00615 0
M  V30 2615 C 256.15 1.40939 -0.878941 0
M  V30 2616 O 257.335 1.52741 -1.14345 0
M  V30 2617 C 254.475 2.46156 -2.4187 0
M  V30 2618 C 253.588 2.26236 -3.68024 0
M  V30 2619 C 252.723 3.51534 -3.98243 0
M  V30 2620 C 251.762 3.26787 -5.17568 0
M  V30 2621 N 250.899 4.44298 -5.43639 0
M  V30 2622 H 255.739 0.763743 -2.88047 0
M  V30 2623 H 253.276 0.365615 -1.42484 0
M  V30 2624 H 255.234 3.23189 -2.63827 0
M  V30 2625 H 253.864 2.81783 -1.57475 0
M  V30 2626 H 252.916 1.40102 -3.5366 0
M  V30 2627 H 254.228 2.03929 -4.55208 0
M  V30 2628 H 253.382 4.36984 -4.20868 0
M  V30 2629 H 252.121 3.76876 -3.09541 0
M  V30 2630 H 251.126 2.39729 -4.94783 0
M  V30 2631 H 252.351 3.02812 -6.0785 0
M  V30 2632 H 250.297 4.69754 -4.57895 0
M  V30 2633 H 250.214 4.25109 -6.25154 0
M  V30 2634 H 251.482 5.3087 -5.70786 0
M  V30 2635 N 255.711 1.52812 0.385517 0
M  V30 2636 C 256.659 1.78482 1.49155 0
M  V30 2637 C 257.653 0.652914 1.56312 0
M  V30 2638 O 258.859 0.835464 1.59436 0
M  V30 2639 H 255.234 0.5648 0.496493 0
M  V30 2640 H 257.205 2.71095 1.24699 0
M  V30 2641 C 255.954 1.97378 2.86247 0
M  V30 2642 H 255.277 2.83907 2.81491 0
M  V30 2643 H 256.717 2.19327 3.62866 0
M  V30 2644 C 255.176 0.74728 3.28508 0
M  V30 2645 O 255.706 -0.0736232 4.01633 0
M  V30 2646 N 253.912 0.576396 2.84826 0
M  V30 2647 H 253.459 1.24555 2.25486 0
M  V30 2648 H 253.417 -0.24288 3.1346 0
M  V30 2649 N 257.189 -0.644168 1.43834 0
M  V30 2650 C 258.119 -1.76814 1.52509 0
M  V30 2651 C 259.1 -1.65823 0.379052 0
M  V30 2652 O 260.285 -1.84781 0.597466 0
M  V30 2653 C 257.415 -3.15288 1.4564 0
M  V30 2654 C 256.369 -3.41053 2.58586 0
M  V30 2655 C 255.695 -4.79421 2.36769 0
M  V30 2656 C 256.995 -3.34902 4.00797 0
M  V30 2657 H 258.689 -1.69812 2.46586 0
M  V30 2658 H 256.235 -0.815542 1.1868 0
M  V30 2659 H 258.188 -3.93681 1.50311 0
M  V30 2660 H 256.912 -3.23043 0.480725 0
M  V30 2661 H 255.571 -2.65035 2.53282 0
M  V30 2662 H 255.219 -4.83863 1.37424 0
M  V30 2663 H 254.919 -4.9762 3.12487 0
M  V30 2664 H 256.443 -5.6006 2.43238 0
M  V30 2665 H 257.857 -4.03218 4.07539 0
M  V30 2666 H 256.254 -3.64637 4.76613 0
M  V30 2667 H 257.324 -2.32928 4.25291 0
M  V30 2668 N 258.668 -1.30515 -0.883378 0
M  V30 2669 C 259.914 -1.19607 -1.63774 0
M  V30 2670 C 260.247 0.248314 -1.92606 0
M  V30 2671 O 259.522 1.17742 -1.54813 0
M  V30 2672 C 259.805 -2.02669 -2.97653 0
M  V30 2673 C 259.658 -3.55335 -2.75784 0
M  V30 2674 C 260.977 -1.86573 -3.98596 0
M  V30 2675 H 258.096 -0.435856 -0.594305 0
M  V30 2676 H 260.738 -1.60165 -1.02212 0
M  V30 2677 H 258.888 -1.68208 -3.50197 0
M  V30 2678 H 260.56 -3.99863 -2.30016 0
M  V30 2679 H 258.803 -3.79438 -2.1026 0
M  V30 2680 H 259.474 -4.08745 -3.70988 0
M  V30 2681 H 261.95 -2.16703 -3.55217 0
M  V30 2682 H 260.826 -2.47014 -4.90179 0
M  V30 2683 H 261.087 -0.825321 -4.34328 0
M  V30 2684 N 260.146 1.09593 -1.13257 0
M  V30 2685 C 261.557 1.63229 -0.906274 0
M  V30 2686 C 261.908 1.8811 0.557578 0
M  V30 2687 O 261.033 1.62953 1.42391 0
M  V30 2688 C 261.628 2.96535 -1.63867 0
M  V30 2689 C 260.187 3.47003 -1.45828 0
M  V30 2690 C 259.334 2.2145 -1.66898 0
M  V30 2691 H 262.285 0.92978 -1.28611 0
M  V30 2692 H 262.306 3.64411 -1.09476 0
M  V30 2693 H 261.818 2.78394 -2.70404 0
M  V30 2694 H 259.919 3.70272 -0.415848 0
M  V30 2695 H 260.032 4.24551 -2.2202 0
M  V30 2696 H 258.396 2.30022 -1.09371 0
M  V30 2697 H 259.179 2.0583 -2.74752 0
M  V30 2698 N 261.624 0.925811 1.2754 0
M  V30 2699 C 262.556 0.380753 2.26015 0
M  V30 2700 C 263.569 -0.487485 1.5533 0
M  V30 2701 O 264.758 -0.300413 1.75954 0
M  V30 2702 C 261.858 -0.473259 3.35579 0
M  V30 2703 C 261.031 0.375249 4.35787 0
M  V30 2704 C 260.09 -0.415809 5.24555 0
M  V30 2705 O 259.116 0.175834 5.68928 0
M  V30 2706 N 260.318 -1.71607 5.54555 0
M  V30 2707 H 263.083 1.22725 2.73421 0
M  V30 2708 H 260.644 0.793037 1.41147 0
M  V30 2709 H 262.636 -1.00949 3.91907 0
M  V30 2710 H 261.206 -1.2205 2.87789 0
M  V30 2711 H 260.426 1.09279 3.7875 0
M  V30 2712 H 261.714 0.955399 4.99749 0
M  V30 2713 H 261.112 -2.2191 5.20358 0
M  V30 2714 H 259.669 -2.19887 6.1359 0
M  V30 2715 N 263.102 -1.41638 0.69111 0
M  V30 2716 C 264.034 -2.29194 -0.0161523 0
M  V30 2717 C 265.047 -1.44549 -0.748955 0
M  V30 2718 O 266.236 -1.681 -0.6004 0
M  V30 2719 C 263.336 -3.22325 -1.0469 0
M  V30 2720 C 262.509 -4.35706 -0.384621 0
M  V30 2721 C 261.568 -5.09443 -1.31737 0
M  V30 2722 O 260.594 -5.63386 -0.811451 0
M  V30 2723 N 261.796 -5.16487 -2.64993 0
M  V30 2724 H 264.561 -2.90534 0.735523 0
M  V30 2725 H 262.122 -1.52742 0.53679 0
M  V30 2726 H 264.114 -3.68522 -1.67252 0
M  V30 2727 H 262.684 -2.62323 -1.70015 0
M  V30 2728 H 261.904 -3.91948 0.420804 0
M  V30 2729 H 263.192 -5.08743 0.0760765 0
M  V30 2730 H 262.59 -4.741 -3.08619 0
M  V30 2731 H 261.147 -5.66276 -3.22761 0
M  V30 2732 N 264.58 -0.43555 -1.51462 0
M  V30 2733 C 265.543 0.365137 -2.26273 0
M  V30 2734 C 266.543 0.951227 -1.29647 0
M  V30 2735 O 267.733 0.825958 -1.53374 0
M  V30 2736 C 264.865 1.51645 -3.05314 0
M  V30 2737 H 266.058 -0.290474 -2.9849 0
M  V30 2738 H 263.611 -0.188676 -1.55157 0
M  V30 2739 H 264.346 2.20816 -2.3751 0
M  V30 2740 H 264.131 1.10238 -3.76284 0
M  V30 2741 H 265.621 2.08218 -3.61987 0
M  V30 2742 N 266.058 1.56714 -0.166846 0
M  V30 2743 C 267.286 2.0112 0.485644 0
M  V30 2744 C 267.701 1.04705 1.57106 0
M  V30 2745 O 267.058 0.0471923 1.82439 0
M  V30 2746 C 267.109 3.45361 1.06808 0
M  V30 2747 O 266.83 4.38092 0.0259995 0
M  V30 2748 C 268.331 4.05145 1.79924 0
M  V30 2749 H 265.551 0.65931 0.124704 0
M  V30 2750 H 268.095 2.02746 -0.267262 0
M  V30 2751 H 266.25 3.44524 1.7715 0
M  V30 2752 H 266.664 5.22519 0.455398 0
M  V30 2753 H 268.138 5.08009 2.15942 0
M  V30 2754 H 268.615 3.46982 2.69258 0
M  V30 2755 H 269.221 4.09672 1.14234 0
M  V30 2756 N 267.536 -0.106894 1.57237 0
M  V30 2757 C 268.782 -0.81373 1.85759 0
M  V30 2758 C 269.115 -1.78952 0.754315 0
M  V30 2759 O 268.39 -1.93029 -0.23879 0
M  V30 2760 C 268.673 -1.55293 3.24894 0
M  V30 2761 C 268.526 -0.595929 4.45835 0
M  V30 2762 C 269.845 -2.5063 3.61763 0
M  V30 2763 H 266.964 -0.294369 0.67566 0
M  V30 2764 H 269.606 -0.0776472 1.89841 0
M  V30 2765 H 267.756 -2.1804 3.21544 0
M  V30 2766 H 269.428 0.0236262 4.61294 0
M  V30 2767 H 267.671 0.0916191 4.33703 0
M  V30 2768 H 268.342 -1.15004 5.39887 0
M  V30 2769 H 270.818 -1.97982 3.65981 0
M  V30 2770 H 269.694 -2.99376 4.60071 0
M  V30 2771 H 269.955 -3.3385 2.89821 0
M  V30 2772 N 269.014 -1.53014 -0.377408 0
M  V30 2773 C 270.263 -1.67845 -1.11853 0
M  V30 2774 C 270.576 -0.430625 -1.90801 0
M  V30 2775 O 271.782 -0.459261 -2.67587 0
M  V30 2776 C 270.238 -2.96668 -2.03756 0
M  V30 2777 C 269.846 -4.28671 -1.30175 0
M  V30 2778 C 271.59 -3.20865 -2.77932 0
M  V30 2779 C 269.497 -5.48591 -2.20911 0
M  V30 2780 H 268.427 -0.625343 -0.421263 0
M  V30 2781 H 271.078 -1.79514 -0.380409 0
M  V30 2782 H 269.46 -2.78773 -2.8125 0
M  V30 2783 H 270.634 -4.57157 -0.578259 0
M  V30 2784 H 268.949 -4.10825 -0.679108 0
M  V30 2785 H 271.546 -4.07642 -3.46024 0
M  V30 2786 H 271.889 -2.36424 -3.4265 0
M  V30 2787 H 272.422 -3.39379 -2.07525 0
M  V30 2788 H 269.161 -6.35474 -1.6079 0
M  V30 2789 H 268.681 -5.244 -2.91144 0
M  V30 2790 H 270.36 -5.8292 -2.80736 0
M  V30 2791 N 270.492 0.636531 -1.44174 0
M  V30 2792 C 271.908 0.954104 -1.27941 0
M  V30 2793 C 272.108 2.0039 -0.211248 0
M  V30 2794 O 271.164 2.49236 0.404695 0
M  V30 2795 C 272.477 1.4225 -2.64925 0
M  V30 2796 C 274.025 1.53827 -2.72592 0
M  V30 2797 C 274.5 2.04053 -4.10032 0
M  V30 2798 N 275.991 2.11331 -4.12182 0
M  V30 2799 C 276.726 2.51352 -5.15374 0
M  V30 2800 N 276.222 2.90549 -6.2893 0
M  V30 2801 N 278.015 2.51438 -5.02728 0
M  V30 2802 H 270.166 -0.0578386 -2.12321 0
M  V30 2803 H 272.429 0.0367406 -0.947288 0
M  V30 2804 H 272.135 0.725466 -3.44136 0
M  V30 2805 H 272.009 2.39451 -2.9145 0
M  V30 2806 H 274.396 2.22628 -1.93702 0
M  V30 2807 H 274.477 0.550154 -2.49814 0
M  V30 2808 H 274.121 1.35848 -4.89395 0
M  V30 2809 H 274.051 3.03726 -4.30184 0
M  V30 2810 H 276.542 1.83745 -3.30222 0
M  V30 2811 H 276.855 3.19884 -7.03487 0
M  V30 2812 H 275.2 2.88313 -6.32377 0
M  V30 2813 H 278.391 2.20203 -4.13072 0
M  V30 2814 H 278.564 2.82304 -5.83274 0
M  V30 2815 N 271.97 1.30982 0.876444 0
M  V30 2816 C 273.247 1.10942 1.61094 0
M  V30 2817 C 273.627 -0.338223 2.08373 0
M  V30 2818 O 272.975 -1.33122 1.85717 0
M  V30 2819 C 273.185 2.11789 2.77392 0
M  V30 2820 C 274.533 2.43965 3.47514 0
M  V30 2821 O 275.557 2.10166 2.87591 0
M  V30 2822 O 274.416 3.01817 4.55597 0
M  V30 2823 H 271.51 0.42667 0.708436 0
M  V30 2824 H 274.056 1.42438 0.922474 0
M  V30 2825 H 272.828 3.09194 2.39823 0
M  V30 2826 H 272.451 1.81161 3.5393 0
M  V30 2827 N 273.449 -1.08991 1.13837 0
M  V30 2828 C 274.697 -1.80899 0.901098 0
M  V30 2829 C 275.018 -1.86356 -0.574134 0
M  V30 2830 O 274.288 -1.35235 -1.41733 0
M  V30 2831 H 272.868 -0.669966 0.330386 0
M  V30 2832 H 275.53 -1.318 1.43578 0
M  V30 2833 H 274.626 -2.83929 1.29578 0
M  V30 2834 N 274.927 -0.932562 -1.27047 0
M  V30 2835 C 276.204 -0.49377 -1.89265 0
M  V30 2836 C 276.584 1.02833 -1.8436 0
M  V30 2837 O 275.932 1.88461 -1.29209 0
M  V30 2838 C 276.142 -1.04536 -3.32976 0
M  V30 2839 C 277.49 -1.10879 -4.09867 0
M  V30 2840 O 278.514 -0.995327 -3.42011 0
M  V30 2841 O 277.373 -1.28417 -5.31198 0
M  V30 2842 H 274.467 -0.159596 -0.811454 0
M  V30 2843 H 277.013 -1.02457 -1.3528 0
M  V30 2844 H 275.785 -2.08913 -3.30864 0
M  V30 2845 H 275.408 -0.496494 -3.94488 0
M  V30 2846 N 276.405 1.4127 -0.698611 0
M  V30 2847 C 277.352 2.30773 -0.0352094 0
M  V30 2848 C 278.322 1.47273 0.768111 0
M  V30 2849 O 279.507 1.76053 0.735524 0
M  V30 2850 C 276.647 3.33346 0.893 0
M  V30 2851 C 275.76 4.31924 0.0809695 0
M  V30 2852 C 274.895 5.21566 1.0071 0
M  V30 2853 C 273.934 6.11811 0.188155 0
M  V30 2854 N 273.071 6.93926 1.06825 0
M  V30 2855 H 277.911 2.86943 -0.804207 0
M  V30 2856 H 275.448 1.4132 -0.408294 0
M  V30 2857 H 277.406 3.91368 1.44523 0
M  V30 2858 H 276.036 2.78719 1.62836 0
M  V30 2859 H 275.088 3.75825 -0.588224 0
M  V30 2860 H 276.4 4.95716 -0.553801 0
M  V30 2861 H 275.554 5.84437 1.62845 0
M  V30 2862 H 274.293 4.58008 1.67572 0
M  V30 2863 H 273.298 5.47986 -0.446254 0
M  V30 2864 H 274.523 6.77425 -0.476716 0
M  V30 2865 H 272.469 6.32973 1.72283 0
M  V30 2866 H 272.386 7.54416 0.489123 0
M  V30 2867 H 273.654 7.61262 1.67632 0
M  V30 2868 N 277.883 0.443576 1.51229 0
M  V30 2869 C 279.13 -0.120796 2.02139 0
M  V30 2870 C 279.458 -1.42166 1.32736 0
M  V30 2871 O 278.713 -1.90849 0.43301 0
M  V30 2872 C 279.012 -0.380579 3.55368 0
M  V30 2873 C 278.678 0.83523 4.43097 0
M  V30 2874 C 277.34 1.16864 4.66794 0
M  V30 2875 C 279.692 1.64601 4.94526 0
M  V30 2876 C 277.02 2.31339 5.39165 0
M  V30 2877 C 279.372 2.78181 5.68153 0
M  V30 2878 C 278.036 3.11969 5.90112 0
M  V30 2879 H 277.306 -0.0442023 0.73968 0
M  V30 2880 H 279.953 0.592046 1.82118 0
M  V30 2881 H 278.258 -1.17538 3.73754 0
M  V30 2882 H 279.955 -0.830777 3.923 0
M  V30 2883 H 276.545 0.565437 4.24854 0
M  V30 2884 H 280.729 1.40163 4.76097 0
M  V30 2885 H 275.985 2.57823 5.5438 0
M  V30 2886 H 280.159 3.41371 6.06992 0
M  V30 2887 H 277.786 4.00784 6.45969 0
M  V30 2888 N 279.361 -1.56624 0.175154 0
M  V30 2889 C 280.293 -2.15333 -0.785128 0
M  V30 2890 C 281.306 -1.1099 -1.19101 0
M  V30 2891 O 282.495 -1.38162 -1.13019 0
M  V30 2892 C 279.595 -2.68427 -2.06882 0
M  V30 2893 C 278.768 -3.97466 -1.8259 0
M  V30 2894 C 277.827 -4.35585 -2.95215 0
M  V30 2895 O 276.853 -5.03389 -2.65684 0
M  V30 2896 N 278.055 -3.97457 -4.23094 0
M  V30 2897 H 280.82 -2.98359 -0.283187 0
M  V30 2898 H 278.381 -1.61898 -0.00749817 0
M  V30 2899 H 280.373 -2.90924 -2.81328 0
M  V30 2900 H 278.943 -1.89968 -2.48256 0
M  V30 2901 H 278.163 -3.83307 -0.920287 0
M  V30 2902 H 279.451 -4.81736 -1.63733 0
M  V30 2903 H 278.849 -3.42878 -4.49945 0
M  V30 2904 H 277.406 -4.24947 -4.9423 0
M  V30 2905 N 280.839 0.0985539 -1.57292 0
M  V30 2906 C 282.088 0.801358 -1.85098 0
M  V30 2907 C 282.401 1.80066 -0.763902 0
M  V30 2908 O 283.607 2.55112 -0.928981 0
M  V30 2909 C 282.063 1.47599 -3.28242 0
M  V30 2910 C 281.671 0.516624 -4.45011 0
M  V30 2911 C 283.415 2.16272 -3.65276 0
M  V30 2912 C 281.322 1.19564 -5.79188 0
M  V30 2913 H 280.252 0.303022 -0.69043 0
M  V30 2914 H 282.903 0.0542623 -1.8342 0
M  V30 2915 H 281.285 2.27042 -3.2445 0
M  V30 2916 H 282.459 -0.246065 -4.60143 0
M  V30 2917 H 280.774 -0.064227 -4.1635 0
M  V30 2918 H 283.371 2.67802 -4.62803 0
M  V30 2919 H 283.714 2.95009 -2.93727 0
M  V30 2920 H 284.247 1.43693 -3.70941 0
M  V30 2921 H 280.986 0.449157 -6.53959 0
M  V30 2922 H 280.506 1.92984 -5.67906 0
M  V30 2923 H 282.185 1.7231 -6.23633 0
M  V30 2924 N 282.317 1.53212 0.369288 0
M  V30 2925 C 283.265 1.80054 1.47253 0
M  V30 2926 C 284.259 0.669456 1.55611 0
M  V30 2927 O 285.465 0.852328 1.58541 0
M  V30 2928 H 281.84 0.570034 0.490475 0
M  V30 2929 H 283.811 2.72403 1.21817 0
M  V30 2930 C 282.56 2.00403 2.84137 0
M  V30 2931 H 281.883 2.86876 2.78464 0
M  V30 2932 H 283.323 2.23164 3.60519 0
M  V30 2933 C 281.782 0.782081 3.27697 0
M  V30 2934 O 282.312 -0.0310205 4.01688 0
M  V30 2935 N 280.518 0.606573 2.84199 0
M  V30 2936 H 280.065 1.26939 2.24152 0
M  V30 2937 H 280.023 -0.20962 3.137 0
M  V30 2938 N 283.795 -0.628877 1.44509 0
M  V30 2939 C 284.758 -1.72263 1.51188 0
M  V30 2940 C 285.758 -1.55907 0.39367 0
M  V30 2941 O 286.948 -1.61361 0.656377 0
M  V30 2942 C 284.08 -3.11365 1.38798 0
M  V30 2943 H 285.273 -1.67714 2.4862 0
M  V30 2944 H 282.826 -0.842737 1.31634 0
M  V30 2945 H 283.561 -3.21507 0.424693 0
M  V30 2946 H 283.346 -3.24644 2.19884 0
M  V30 2947 H 284.836 -3.91075 1.46458 0
M  V30 2948 N 285.273 -1.31445 -0.869486 0
M  V30 2949 C 286.55 -1.11795 -1.60503 0
M  V30 2950 C 286.93 0.327168 -2.08549 0
M  V30 2951 O 286.278 1.32135 -1.8642 0
M  V30 2952 C 286.488 -2.13258 -2.76265 0
M  V30 2953 C 287.836 -2.45805 -3.46215 0
M  V30 2954 O 288.86 -2.11688 -2.86473 0
M  V30 2955 O 287.719 -3.04228 -4.5399 0
M  V30 2956 H 284.813 -0.430421 -0.706163 0
M  V30 2957 H 287.359 -1.42925 -0.914907 0
M  V30 2958 H 286.131 -3.10461 -2.3818 0
M  V30 2959 H 285.754 -1.83035 -3.52964 0
M  V30 2960 N 286.751 1.08385 -1.14413 0
M  V30 2961 C 287.683 2.1519 -0.789036 0
M  V30 2962 C 288.696 1.61638 0.19417 0
M  V30 2963 O 289.885 1.78479 -0.0275711 0
M  V30 2964 C 286.985 3.38565 -0.15058 0
M  V30 2965 C 286.158 4.21501 -1.16857 0
M  V30 2966 C 285.217 5.23277 -0.553832 0
M  V30 2967 O 284.243 5.56041 -1.21686 0
M  V30 2968 N 285.445 5.76629 0.669296 0
M  V30 2969 H 288.21 2.46257 -1.70814 0
M  V30 2970 H 285.771 1.24198 -1.03858 0
M  V30 2971 H 287.763 4.03777 0.273181 0
M  V30 2972 H 286.333 3.05299 0.671667 0
M  V30 2973 H 285.553 3.52265 -1.76926 0
M  V30 2974 H 286.841 4.73731 -1.85624 0
M  V30 2975 H 286.239 5.52243 1.22654 0
M  V30 2976 H 284.796 6.43521 1.03556 0
M  V30 2977 N 288.23 0.939286 1.26551 0
M  V30 2978 C 289.16 0.465044 2.28822 0
M  V30 2979 C 290.141 -0.480692 1.63167 0
M  V30 2980 O 291.326 -0.382955 1.90387 0
M  V30 2981 C 288.456 -0.27234 3.46231 0
M  V30 2982 C 287.41 0.58666 4.2396 0
M  V30 2983 C 286.736 -0.280573 5.33963 0
M  V30 2984 C 288.036 1.85704 4.88171 0
M  V30 2985 H 289.73 1.31979 2.68741 0
M  V30 2986 H 287.276 0.636061 1.29191 0
M  V30 2987 H 289.229 -0.615133 4.16886 0
M  V30 2988 H 287.953 -1.16121 3.0526 0
M  V30 2989 H 286.612 0.91232 3.55067 0
M  V30 2990 H 286.26 -1.16874 4.89234 0
M  V30 2991 H 285.96 0.29076 5.8688 0
M  V30 2992 H 287.484 -0.618678 6.07458 0
M  V30 2993 H 288.898 1.58161 5.51052 0
M  V30 2994 H 287.295 2.37279 5.51197 0
M  V30 2995 H 288.365 2.56957 4.11219 0
M  V30 2996 N 289.708 -1.40897 0.706093 0
M  V30 2997 C 290.954 -2.01352 0.241889 0
M  V30 2998 C 291.287 -1.55832 -1.15888 0
M  V30 2999 O 290.562 -0.774145 -1.7843 0
M  V30 3000 C 290.845 -3.58752 0.311311 0
M  V30 3001 C 290.698 -4.1437 1.74978 0
M  V30 3002 C 292.017 -4.38914 -0.322922 0
M  V30 3003 H 289.136 -0.731562 0.0893687 0
M  V30 3004 H 291.778 -1.67504 0.896802 0
M  V30 3005 H 289.928 -3.87718 -0.246302 0
M  V30 3006 H 291.6 -3.96239 2.36205 0
M  V30 3007 H 289.843 -3.69016 2.28057 0
M  V30 3008 H 290.514 -5.23532 1.74981 0
M  V30 3009 H 292.99 -4.15822 0.152089 0
M  V30 3010 H 291.866 -5.48358 -0.243855 0
M  V30 3011 H 292.127 -4.19176 -1.40513 0
M  V30 3012 N 291.186 -0.45159 -1.50991 0
M  V30 3013 C 292.432 0.110237 -2.025 0
M  V30 3014 C 292.765 1.41109 -1.33424 0
M  V30 3015 O 292.04 1.89135 -0.453659 0
M  V30 3016 C 292.323 0.314271 -3.58726 0
M  V30 3017 C 292.176 -1.00623 -4.38401 0
M  V30 3018 C 293.495 1.07767 -4.26702 0
M  V30 3019 H 290.614 0.0385897 -0.735989 0
M  V30 3020 H 293.256 -0.593374 -1.80497 0
M  V30 3021 H 291.406 0.913601 -3.77605 0
M  V30 3022 H 293.078 -1.64064 -4.31139 0
M  V30 3023 H 291.321 -1.6075 -4.02917 0
M  V30 3024 H 291.992 -0.817341 -5.45915 0
M  V30 3025 H 294.468 0.56986 -4.12179 0
M  V30 3026 H 293.344 1.18921 -5.35863 0
M  V30 3027 H 293.605 2.10939 -3.88532 0
M  V30 3028 N 292.664 1.56529 -0.183458 0
M  V30 3029 C 293.912 1.96855 0.457452 0
M  V30 3030 C 294.233 1.07104 1.62953 0
M  V30 3031 O 293.503 0.139887 1.954 0
M  V30 3032 H 292.083 0.72693 0.171992 0
M  V30 3033 H 294.745 1.93056 -0.267476 0
M  V30 3034 H 293.841 3.01423 0.809368 0
M  V30 3035 N 294.142 -0.090211 1.57342 0
M  V30 3036 C 295.419 -0.824761 1.77361 0
M  V30 3037 C 295.799 -1.96698 0.76637 0
M  V30 3038 O 295.147 -2.27586 -0.204179 0
M  V30 3039 C 295.357 -1.31481 3.23286 0
M  V30 3040 C 296.705 -1.75563 3.86604 0
M  V30 3041 O 297.729 -1.41093 3.27065 0
M  V30 3042 O 296.588 -2.39317 4.91314 0
M  V30 3043 H 293.682 -0.393776 0.727234 0
M  V30 3044 H 296.228 -0.0717138 1.69548 0
M  V30 3045 H 295 -0.496671 3.88135 0
M  V30 3046 H 294.623 -2.12973 3.35751 0
M  V30 3047 N 295.62 -1.53406 -0.361157 0
M  V30 3048 C 296.55 -1.83136 -1.44857 0
M  V30 3049 C 297.531 -0.685174 -1.5569 0
M  V30 3050 O 298.716 -0.93544 -1.70186 0
M  V30 3051 C 295.846 -2.02522 -2.82138 0
M  V30 3052 C 294.8 -3.18302 -2.86126 0
M  V30 3053 C 294.126 -3.22989 -4.26125 0
M  V30 3054 C 295.426 -4.56796 -2.53248 0
M  V30 3055 H 297.12 -2.74201 -1.20226 0
M  V30 3056 H 294.666 -1.31938 -0.576922 0
M  V30 3057 H 296.619 -2.21904 -3.58241 0
M  V30 3058 H 295.343 -1.08172 -3.08166 0
M  V30 3059 H 294.002 -2.98747 -2.12475 0
M  V30 3060 H 293.65 -2.26267 -4.49235 0
M  V30 3061 H 293.35 -4.00781 -4.29708 0
M  V30 3062 H 294.874 -3.44559 -5.04094 0
M  V30 3063 H 296.288 -4.7631 -3.19064 0
M  V30 3064 H 294.685 -5.36862 -2.68141 0
M  V30 3065 H 295.755 -4.61606 -1.48484 0
M  V30 3066 N 297.098 0.621204 -1.44841 0
M  V30 3067 C 298.344 1.3826 -1.48365 0
M  V30 3068 C 298.677 1.93831 -0.119624 0
M  V30 3069 O 297.952 1.74251 0.864111 0
M  V30 3070 C 298.235 2.54058 -2.55199 0
M  V30 3071 C 298.088 2.03772 -4.00995 0
M  V30 3072 C 299.407 3.56225 -2.58442 0
M  V30 3073 H 296.526 0.501374 -0.540179 0
M  V30 3074 H 299.168 0.7015 -1.76576 0
M  V30 3075 H 297.318 3.12162 -2.31274 0
M  V30 3076 H 298.99 1.50423 -4.36086 0
M  V30 3077 H 297.233 1.34876 -4.12299 0
M  V30 3078 H 297.904 2.87185 -4.71411 0
M  V30 3079 H 300.38 3.07939 -2.79844 0
M  V30 3080 H 299.256 4.34756 -3.3508 0
M  V30 3081 H 299.517 4.10949 -1.63013 0
M  V30 3082 N 298.576 1.31904 0.862503 0
M  V30 3083 C 299.486 1.22161 2.00285 0
M  V30 3084 C 300.502 0.136785 1.73462 0
M  V30 3085 O 301.678 0.355994 1.98229 0
M  V30 3086 C 298.743 0.937093 3.33796 0
M  V30 3087 C 297.804 2.10957 3.73893 0
M  V30 3088 C 297.037 1.83853 5.01033 0
M  V30 3089 O 297.26 0.777274 5.65079 0
M  V30 3090 O 296.194 2.69741 5.38074 0
M  V30 3091 H 300.02 2.18008 2.11439 0
M  V30 3092 H 297.605 1.11716 0.991957 0
M  V30 3093 H 299.487 0.794583 4.13841 0
M  V30 3094 H 298.162 0.00871894 3.23699 0
M  V30 3095 H 297.069 2.30752 2.94456 0
M  V30 3096 H 298.402 3.02046 3.88625 0
M  V30 3097 N 300.054 -1.07777 1.14986 0
M  V30 3098 C 300.987 -2.14228 0.786243 0
M  V30 3099 C 301.965 -1.60888 -0.235347 0
M  V30 3100 O 303.149 -1.88099 -0.122909 0
M  V30 3101 C 300.276 -3.38281 0.168433 0
M  V30 3102 C 299.322 -4.10387 1.16123 0
M  V30 3103 S 300.155 -4.62371 2.70135 0
M  V30 3104 C 301.311 -5.89704 2.09762 0
M  V30 3105 H 301.544 -2.44741 1.68787 0
M  V30 3106 H 299.077 -1.19984 0.971756 0
M  V30 3107 H 301.035 -4.10098 -0.181588 0
M  V30 3108 H 299.696 -3.05953 -0.710725 0
M  V30 3109 H 298.889 -4.99431 0.677086 0
M  V30 3110 H 298.491 -3.44513 1.45556 0
M  V30 3111 H 300.783 -6.61648 1.45701 0
M  V30 3112 H 301.726 -6.42824 2.96955 0
M  V30 3113 H 302.134 -5.4302 1.54239 0
M  V30 3114 N 301.532 -0.945985 -1.26051 0
M  V30 3115 C 302.479 -0.45809 -2.26208 0
M  V30 3116 C 303.449 0.484816 -1.58867 0
M  V30 3117 O 304.634 0.399969 -1.86561 0
M  V30 3118 C 301.774 0.266131 -3.44072 0
M  V30 3119 C 300.887 -0.713005 -4.26075 0
M  V30 3120 C 300.022 0.0329013 -5.3119 0
M  V30 3121 C 299.061 -0.93774 -6.04874 0
M  V30 3122 N 298.198 -0.223274 -7.01745 0
M  V30 3123 H 303.038 -1.3171 -2.67313 0
M  V30 3124 H 300.575 -0.66069 -1.31428 0
M  V30 3125 H 302.533 0.702514 -4.11243 0
M  V30 3126 H 301.163 1.08925 -3.03867 0
M  V30 3127 H 300.215 -1.26789 -3.58648 0
M  V30 3128 H 301.527 -1.45406 -4.77136 0
M  V30 3129 H 300.681 0.528335 -6.04395 0
M  V30 3130 H 299.42 0.806801 -4.8098 0
M  V30 3131 H 298.425 -1.44425 -5.30492 0
M  V30 3132 H 299.65 -1.71172 -6.57173 0
M  V30 3133 H 297.596 0.532046 -6.53839 0
M  V30 3134 H 297.513 -0.90357 -7.50581 0
M  V30 3135 H 298.781 0.250907 -7.79096 0
M  V30 3136 N 303.011 1.40521 -0.713556 0
M  V30 3137 C 304.259 2.00527 -0.251692 0
M  V30 3138 C 304.58 1.56857 1.15848 0
M  V30 3139 O 303.85 0.807127 1.785 0
M  V30 3140 H 302.43 0.741551 -0.0900646 0
M  V30 3141 H 305.092 1.71887 -0.918733 0
M  V30 3142 H 304.188 3.10813 -0.283192 0
M  V30 3143 N 304.489 0.459591 1.5075 0
M  V30 3144 C 305.737 -0.0991532 2.01857 0
M  V30 3145 C 306.058 -1.41247 1.34441 0
M  V30 3146 O 305.328 -1.89775 0.486022 0
M  V30 3147 H 303.908 -0.039633 0.745948 0
M  V30 3148 H 306.57 0.607387 1.85194 0
M  V30 3149 H 305.666 -0.258998 3.11023 0
M  V30 3150 N 305.967 -1.56429 0.191757 0
M  V30 3151 C 307.244 -1.89224 -0.495332 0
M  V30 3152 C 307.624 -1.10478 -1.79883 0
M  V30 3153 O 306.972 -0.204852 -2.2758 0
M  V30 3154 C 307.182 -3.41548 -0.717367 0
M  V30 3155 C 308.53 -4.11711 -1.03823 0
M  V30 3156 O 309.554 -3.4698 -0.805204 0
M  V30 3157 O 308.413 -5.2611 -1.47887 0
M  V30 3158 H 305.507 -0.785788 -0.25781 0
M  V30 3159 H 308.053 -1.68111 0.231721 0
M  V30 3160 H 306.825 -3.90772 0.203287 0
M  V30 3161 H 306.448 -3.68342 -1.497 0
M  V30 3162 N 307.445 0.0818655 -1.57387 0
M  V30 3163 C 308.861 0.436412 -1.53517 0
M  V30 3164 C 309.061 1.79758 -0.910459 0
M  V30 3165 O 308.117 2.47324 -0.508636 0
M  V30 3166 C 309.43 0.386734 -2.98203 0
M  V30 3167 C 310.978 0.467644 -3.09487 0
M  V30 3168 C 311.453 0.447978 -4.55804 0
M  V30 3169 N 312.944 0.508348 -4.60402 0
M  V30 3170 C 313.679 0.515184 -5.71081 0
M  V30 3171 N 313.175 0.477435 -6.91153 0
M  V30 3172 N 314.968 0.560988 -5.59294 0
M  V30 3173 H 307.119 -0.809546 -1.96367 0
M  V30 3174 H 309.382 -0.302733 -0.898363 0
M  V30 3175 H 309.088 -0.546539 -3.47427 0
M  V30 3176 H 308.962 1.20075 -3.57578 0
M  V30 3177 H 311.349 1.39134 -2.60242 0
M  V30 3178 H 311.43 -0.374753 -2.5304 0
M  V30 3179 H 311.074 -0.471826 -5.05704 0
M  V30 3180 H 311.004 1.30777 -5.10103 0
M  V30 3181 H 313.495 0.54218 -3.7399 0
M  V30 3182 H 313.808 0.486299 -7.71268 0
M  V30 3183 H 312.153 0.444278 -6.93579 0
M  V30 3184 H 315.344 0.5881 -4.64391 0
M  V30 3185 H 315.517 0.562846 -6.45551 0
M  V30 3186 N 308.923 1.53595 0.353017 0
M  V30 3187 C 310.169 1.70638 1.09593 0
M  V30 3188 C 310.502 0.463286 1.88593 0
M  V30 3189 O 309.777 -0.539597 1.86865 0
M  V30 3190 C 310.06 2.96406 2.04489 0
M  V30 3191 C 309.913 4.30901 1.29014 0
M  V30 3192 C 311.232 3.17812 3.0444 0
M  V30 3193 H 308.351 0.620913 0.397034 0
M  V30 3194 H 310.993 1.86254 0.375446 0
M  V30 3195 H 309.143 2.83223 2.65927 0
M  V30 3196 H 310.815 4.55917 0.702638 0
M  V30 3197 H 309.058 4.29741 0.592071 0
M  V30 3198 H 309.729 5.1506 1.98537 0
M  V30 3199 H 312.205 3.30263 2.53112 0
M  V30 3200 H 311.081 4.07223 3.6805 0
M  V30 3201 H 311.342 2.33669 3.75301 0
M  V30 3202 N 310.401 -0.613514 1.45168 0
M  V30 3203 C 311.812 -1.19539 1.43413 0
M  V30 3204 C 312.163 -1.95558 0.158632 0
M  V30 3205 O 311.288 -2.0335 -0.740119 0
M  V30 3206 C 311.883 -2.17445 2.59813 0
M  V30 3207 C 310.442 -2.71022 2.61197 0
M  V30 3208 C 309.589 -1.46323 2.35552 0
M  V30 3209 H 312.54 -0.403163 1.53494 0
M  V30 3210 H 312.561 -3.00373 2.33574 0
M  V30 3211 H 312.073 -1.62089 3.52631 0
M  V30 3212 H 310.174 -3.30332 1.7237 0
M  V30 3213 H 310.287 -3.15859 3.60236 0
M  V30 3214 H 308.651 -1.75072 1.84992 0
M  V30 3215 H 309.434 -0.92844 3.30507 0
M  V30 3216 N 311.879 -1.3236 -0.855495 0
M  V30 3217 C 312.842 -1.21164 -1.94556 0
M  V30 3218 C 313.842 -0.134908 -1.60233 0
M  V30 3219 O 315.032 -0.385249 -1.69887 0
M  V30 3220 C 312.164 -0.863192 -3.29791 0
M  V30 3221 H 313.357 -2.18038 -2.05911 0
M  V30 3222 H 310.91 -1.16179 -1.04557 0
M  V30 3223 H 311.645 0.103769 -3.24134 0
M  V30 3224 H 311.43 -1.64166 -3.56078 0
M  V30 3225 H 312.92 -0.809156 -4.09686 0
M  V30 3226 N 313.357 1.07166 -1.15556 0
M  V30 3227 C 314.634 1.76546 -0.842069 0
M  V30 3228 C 315.014 2.00453 0.661939 0
M  V30 3229 O 314.362 1.62452 1.60691 0
M  V30 3230 C 314.572 3.07266 -1.65495 0
M  V30 3231 C 315.92 3.81578 -1.86234 0
M  V30 3232 O 316.944 3.17083 -1.62287 0
M  V30 3233 O 315.803 4.97419 -2.26355 0
M  V30 3234 H 312.897 0.766756 -0.309862 0
M  V30 3235 H 315.443 1.13514 -1.26145 0
M  V30 3236 H 314.215 2.85494 -2.67598 0
M  V30 3237 H 313.838 3.7803 -1.23203 0
M  V30 3238 N 314.835 0.952656 1.25548 0
M  V30 3239 C 316.084 0.602053 1.92505 0
M  V30 3240 C 316.397 -0.864663 1.75451 0
M  V30 3241 O 317.603 -1.32514 2.36965 0
M  V30 3242 C 316.059 1.02607 3.44963 0
M  V30 3243 C 315.667 2.51519 3.70732 0
M  V30 3244 C 317.411 0.747905 4.1786 0
M  V30 3245 C 315.318 2.87732 5.16686 0
M  V30 3246 H 314.248 0.22146 0.720744 0
M  V30 3247 H 316.899 1.15684 1.42441 0
M  V30 3248 H 315.281 0.399712 3.93978 0
M  V30 3249 H 316.455 3.19157 3.32378 0
M  V30 3250 H 314.77 2.76786 3.11092 0
M  V30 3251 H 317.367 0.994647 5.25367 0
M  V30 3252 H 317.71 -0.315629 4.15102 0
M  V30 3253 H 318.243 1.33452 3.74747 0
M  V30 3254 H 314.982 3.93095 5.24554 0
M  V30 3255 H 314.502 2.24765 5.56094 0
M  V30 3256 H 316.181 2.76817 5.84792 0
M  V30 3257 N 316.313 -1.40141 0.720998 0
M  V30 3258 C 317.729 -1.54632 0.395113 0
M  V30 3259 C 317.929 -1.69115 -1.09555 0
M  V30 3260 O 316.985 -1.68377 -1.88163 0
M  V30 3261 C 318.298 -2.77177 1.1659 0
M  V30 3262 C 319.846 -2.91 1.15274 0
M  V30 3263 C 320.321 -4.16465 1.90579 0
M  V30 3264 N 321.812 -4.23476 1.87675 0
M  V30 3265 C 322.547 -5.19475 2.42762 0
M  V30 3266 N 322.043 -6.21348 3.06428 0
M  V30 3267 N 323.836 -5.11592 2.32874 0
M  V30 3268 H 315.987 -1.28986 1.68749 0
M  V30 3269 H 318.25 -0.62412 0.713567 0
M  V30 3270 H 317.956 -2.72771 2.22011 0
M  V30 3271 H 317.83 -3.69442 0.76108 0
M  V30 3272 H 320.217 -2.94907 0.106702 0
M  V30 3273 H 320.298 -1.99838 1.59682 0
M  V30 3274 H 319.942 -4.1332 2.95176 0
M  V30 3275 H 319.872 -5.06646 1.43587 0
M  V30 3276 H 322.363 -3.50497 1.41281 0
M  V30 3277 H 322.676 -6.91034 3.45965 0
M  V30 3278 H 321.021 -6.21777 3.10514 0
M  V30 3279 H 324.212 -4.30936 1.82789 0
M  V30 3280 H 324.385 -5.86233 2.76106 0
M  V30 3281 N 317.792 -0.46758 -1.50504 0
M  V30 3282 C 319.041 0.0902868 -2.01498 0
M  V30 3283 C 319.354 1.411 -1.35463 0
M  V30 3284 O 320.56 2.0536 -1.77594 0
M  V30 3285 C 319.016 0.21142 -3.59278 0
M  V30 3286 C 318.624 -1.10065 -4.34269 0
M  V30 3287 C 320.368 0.721433 -4.18325 0
M  V30 3288 C 318.275 -0.943505 -5.83825 0
M  V30 3289 H 317.205 0.037517 -0.753066 0
M  V30 3290 H 319.856 -0.601943 -1.73346 0
M  V30 3291 H 318.238 0.967352 -3.84003 0
M  V30 3292 H 319.412 -1.86726 -4.21272 0
M  V30 3293 H 317.727 -1.5415 -3.86816 0
M  V30 3294 H 320.324 0.85598 -5.27804 0
M  V30 3295 H 320.667 1.71186 -3.79475 0
M  V30 3296 H 321.2 0.0229843 -3.97793 0
M  V30 3297 H 317.939 -1.90719 -6.27141 0
M  V30 3298 H 317.459 -0.217213 -5.99407 0
M  V30 3299 H 319.138 -0.608715 -6.4413 0
M  V30 3300 N 319.27 1.56325 -0.20005 0
M  V30 3301 C 320.2 2.22318 0.713916 0
M  V30 3302 C 321.181 1.18788 1.21752 0
M  V30 3303 O 322.366 1.47309 1.26545 0
M  V30 3304 C 319.496 2.88639 1.93144 0
M  V30 3305 C 318.45 3.98457 1.56255 0
M  V30 3306 C 317.776 4.51967 2.85709 0
M  V30 3307 C 319.076 5.16612 0.768747 0
M  V30 3308 H 320.77 2.98952 0.163755 0
M  V30 3309 H 318.316 1.43792 0.0773219 0
M  V30 3310 H 320.269 3.33491 2.57608 0
M  V30 3311 H 318.993 2.09419 2.50621 0
M  V30 3312 H 317.652 3.54305 0.941471 0
M  V30 3313 H 317.3 3.69503 3.41287 0
M  V30 3314 H 317 5.26071 2.6177 0
M  V30 3315 H 318.524 4.99523 3.51154 0
M  V30 3316 H 319.938 5.57977 1.3166 0
M  V30 3317 H 318.335 5.96812 0.627286 0
M  V30 3318 H 319.405 4.84358 -0.229168 0
M  V30 3319 N 320.748 -0.0735177 1.57428 0
M  V30 3320 C 321.711 -1.07192 2.02589 0
M  V30 3321 C 322.711 -1.31695 0.922661 0
M  V30 3322 O 323.901 -1.27445 1.18758 0
M  V30 3323 C 321.033 -2.41599 2.40506 0
M  V30 3324 H 322.226 -0.682727 2.92025 0
M  V30 3325 H 319.779 -0.319193 1.53006 0
M  V30 3326 H 320.514 -2.85354 1.5409 0
M  V30 3327 H 320.299 -2.25156 3.21009 0
M  V30 3328 H 321.789 -3.13367 2.76027 0
M  V30 3329 N 322.226 -1.5378 -0.344866 0
M  V30 3330 C 323.189 -1.80981 -1.40637 0
M  V30 3331 C 324.189 -0.680816 -1.45676 0
M  V30 3332 O 325.379 -0.949095 -1.46075 0
M  V30 3333 C 322.511 -1.95063 -2.79577 0
M  V30 3334 H 323.704 -2.75803 -1.17783 0
M  V30 3335 H 321.257 -1.45173 -0.579181 0
M  V30 3336 H 321.992 -1.02379 -3.07716 0
M  V30 3337 H 321.777 -2.77198 -2.77315 0
M  V30 3338 H 323.267 -2.17629 -3.56409 0
M  V30 3339 N 323.704 0.605807 -1.45491 0
M  V30 3340 C 324.636 1.73031 -1.5031 0
M  V30 3341 C 325.649 1.57968 -0.393687 0
M  V30 3342 O 326.838 1.65817 -0.660839 0
M  V30 3343 C 323.938 3.11049 -1.34543 0
M  V30 3344 C 323.111 3.52334 -2.59189 0
M  V30 3345 C 322.17 4.69323 -2.37954 0
M  V30 3346 O 321.196 4.7635 -3.11575 0
M  V30 3347 N 322.398 5.62705 -1.4263 0
M  V30 3348 H 325.163 1.6936 -2.4726 0
M  V30 3349 H 322.724 0.79114 -1.41254 0
M  V30 3350 H 324.716 3.87071 -1.18144 0
M  V30 3351 H 323.286 3.09217 -0.458623 0
M  V30 3352 H 322.506 2.66256 -2.90691 0
M  V30 3353 H 323.794 3.76677 -3.42041 0
M  V30 3354 H 323.192 5.59744 -0.818758 0
M  V30 3355 H 321.749 6.38252 -1.32202 0
M  V30 3356 N 325.182 1.32811 0.848464 0
M  V30 3357 C 326.43 1.23479 1.59991 0
M  V30 3358 C 326.751 -0.201853 1.93952 0
M  V30 3359 O 326.021 -1.12818 1.60153 0
M  V30 3360 H 324.601 0.454034 0.593179 0
M  V30 3361 H 327.263 1.66412 1.01455 0
M  V30 3362 H 326.359 1.82178 2.53412 0
M  V30 3363 N 326.66 -1.06551 1.16123 0
M  V30 3364 C 327.9 -1.80889 0.951766 0
M  V30 3365 C 328.264 -1.85062 -0.511465 0
M  V30 3366 O 329.465 -2.55353 -0.83954 0
M  V30 3367 C 327.736 -3.21609 1.55893 0
M  V30 3368 S 329.295 -4.12593 1.49373 0
M  V30 3369 H 326.113 -0.623156 0.342341 0
M  V30 3370 H 328.715 -1.27943 1.47821 0
M  V30 3371 H 327.419 -3.16165 2.61664 0
M  V30 3372 H 326.95 -3.79631 1.0317 0
M  V30 3373 H 328.965 -4.93753 0.492196 0
M  V30 3374 N 328.138 -0.959301 -1.25041 0
M  V30 3375 C 329.085 -0.482057 -2.2571 0
M  V30 3376 C 330.055 0.467939 -1.59372 0
M  V30 3377 O 331.24 0.380159 -1.86974 0
M  V30 3378 C 328.38 0.229623 -3.44335 0
M  V30 3379 C 327.493 -0.758156 -4.25295 0
M  V30 3380 C 326.628 -0.0234403 -5.31195 0
M  V30 3381 C 325.667 -1.00184 -6.03846 0
M  V30 3382 N 324.804 -0.29769 -7.01469 0
M  V30 3383 H 329.644 -1.34538 -2.65901 0
M  V30 3384 H 327.181 -0.674592 -1.3072 0
M  V30 3385 H 329.139 0.658856 -4.11965 0
M  V30 3386 H 327.769 1.05696 -3.05005 0
M  V30 3387 H 326.821 -1.30586 -3.57284 0
M  V30 3388 H 328.133 -1.50458 -4.75567 0
M  V30 3389 H 327.287 0.464201 -6.04922 0
M  V30 3390 H 326.026 0.755741 -4.81809 0
M  V30 3391 H 325.031 -1.50044 -5.2893 0
M  V30 3392 H 326.256 -1.78133 -6.55321 0
M  V30 3393 H 324.202 0.462668 -6.54366 0
M  V30 3394 H 324.119 -0.983128 -7.4958 0
M  V30 3395 H 325.387 0.16826 -7.79318 0
M  V30 3396 N 329.616 1.39756 -0.72842 0
M  V30 3397 C 330.862 2.00942 -0.273892 0
M  V30 3398 C 331.195 1.57656 1.13394 0
M  V30 3399 O 330.47 0.802434 1.77176 0
M  V30 3400 C 330.753 3.58211 -0.368346 0
M  V30 3401 C 330.606 4.11534 -1.81548 0
M  V30 3402 C 331.925 4.39372 0.253054 0
M  V30 3403 H 329.044 0.730047 -0.100996 0
M  V30 3404 H 331.686 1.66056 -0.923337 0
M  V30 3405 H 329.836 3.88061 0.184588 0
M  V30 3406 H 331.508 3.92431 -2.42478 0
M  V30 3407 H 329.751 3.65341 -2.33898 0
M  V30 3408 H 330.422 5.20682 -1.83288 0
M  V30 3409 H 332.898 4.15527 -0.218224 0
M  V30 3410 H 331.774 5.48677 0.156585 0
M  V30 3411 H 332.035 4.21358 1.33826 0
M  V30 3412 N 331.094 0.475555 1.50254 0
M  V30 3413 C 332.371 -0.139685 1.95101 0
M  V30 3414 C 332.751 -1.56555 1.41611 0
M  V30 3415 O 332.099 -2.19956 0.618993 0
M  V30 3416 C 332.309 -0.0784298 3.48912 0
M  V30 3417 C 333.657 -0.265095 4.23772 0
M  V30 3418 O 334.681 -0.154808 3.55863 0
M  V30 3419 O 333.54 -0.488327 5.44314 0
M  V30 3420 H 330.634 -0.109236 0.819754 0
M  V30 3421 H 333.18 0.536276 1.61004 0
M  V30 3422 H 331.952 0.916918 3.80405 0
M  V30 3423 H 331.575 -0.795655 3.89558 0
M  V30 3424 N 332.573 -1.56217 0.208337 0
M  V30 3425 C 333.521 -2.21053 -0.723769 0
M  V30 3426 C 334.515 -1.18578 -1.20978 0
M  V30 3427 O 335.721 -1.36691 -1.17114 0
M  V30 3428 H 332.096 -0.708595 -0.251788 0
M  V30 3429 H 334.067 -2.98006 -0.153365 0
M  V30 3430 C 332.816 -2.89417 -1.927 0
M  V30 3431 H 332.139 -3.68019 -1.56212 0
M  V30 3432 H 333.579 -3.38201 -2.55727 0
M  V30 3433 C 332.038 -1.91166 -2.77411 0
M  V30 3434 O 332.568 -1.42026 -3.75754 0
M  V30 3435 N 330.774 -1.59105 -2.43175 0
M  V30 3436 H 330.321 -1.99259 -1.63259 0
M  V30 3437 H 330.279 -0.936255 -3.00136 0
M  V30 3438 N 334.051 0.0651679 -1.57465 0
M  V30 3439 C 335.276 0.779605 -1.9219 0
M  V30 3440 C 335.701 1.69988 -0.805333 0
M  V30 3441 O 335.059 1.79685 0.241435 0
M  V30 3442 C 335.107 1.54364 -3.2589 0
M  V30 3443 O 334.211 2.65474 -3.1559 0
M  V30 3444 H 333.552 0.212249 -0.629163 0
M  V30 3445 H 336.082 0.0314294 -2.04576 0
M  V30 3446 H 336.092 1.92146 -3.59922 0
M  V30 3447 H 334.767 0.868457 -4.06732 0
M  V30 3448 H 333.344 2.30501 -2.93128 0
M  V30 3449 N 335.529 1.53961 0.336706 0
M  V30 3450 C 336.754 1.75797 1.10046 0
M  V30 3451 C 337.179 0.498985 1.81361 0
M  V30 3452 O 336.537 -0.548769 1.72795 0
M  V30 3453 C 336.585 2.94257 2.08436 0
M  V30 3454 O 335.689 2.64883 3.16087 0
M  V30 3455 H 335.03 0.582936 0.317934 0
M  V30 3456 H 337.56 2.00945 0.38501 0
M  V30 3457 H 337.57 3.21237 2.51537 0
M  V30 3458 H 336.245 3.85564 1.55927 0
M  V30 3459 H 334.822 2.48812 2.77753 0
M  V30 3460 N 337.007 -0.598083 1.45811 0
M  V30 3461 C 337.937 -1.71873 1.58057 0
M  V30 3462 C 338.918 -1.64533 0.431615 0
M  V30 3463 O 340.103 -1.82787 0.65595 0
M  V30 3464 C 337.233 -3.10495 1.55597 0
M  V30 3465 C 336.187 -3.32654 2.69305 0
M  V30 3466 C 335.513 -4.71646 2.51902 0
M  V30 3467 C 336.813 -3.21981 4.11248 0
M  V30 3468 H 338.507 -1.61881 2.51863 0
M  V30 3469 H 336.053 -0.777372 1.21214 0
M  V30 3470 H 338.006 -3.88699 1.6276 0
M  V30 3471 H 336.73 -3.2135 0.583255 0
M  V30 3472 H 335.389 -2.56843 2.61586 0
M  V30 3473 H 335.037 -4.79246 1.52748 0
M  V30 3474 H 334.737 -4.87426 3.2816 0
M  V30 3475 H 336.261 -5.52038 2.60933 0
M  V30 3476 H 337.675 -3.90049 4.20161 0
M  V30 3477 H 336.072 -3.49289 4.87972 0
M  V30 3478 H 337.142 -2.1928 4.32486 0
M  V30 3479 N 338.485 -1.33259 -0.841409 0
M  V30 3480 C 339.713 -1.27605 -1.62864 0
M  V30 3481 C 340.128 0.153507 -1.88175 0
M  V30 3482 O 339.485 1.09485 -1.46011 0
M  V30 3483 C 339.536 -2.04596 -2.98031 0
M  V30 3484 O 339.257 -3.41975 -2.73834 0
M  V30 3485 C 340.758 -2.06122 -3.92465 0
M  V30 3486 H 337.978 -0.439718 -0.506842 0
M  V30 3487 H 340.522 -1.75591 -1.04824 0
M  V30 3488 H 338.677 -1.60299 -3.5268 0
M  V30 3489 H 339.091 -3.81549 -3.59889 0
M  V30 3490 H 340.565 -2.64451 -4.84531 0
M  V30 3491 H 341.042 -1.05083 -4.26444 0
M  V30 3492 H 341.648 -2.50427 -3.43753 0
M  V30 3493 N 339.963 1.05934 -1.16686 0
M  V30 3494 C 341.211 1.78447 -0.948744 0
M  V30 3495 C 341.532 1.87813 0.524523 0
M  V30 3496 O 340.802 1.38945 1.38098 0
M  V30 3497 H 339.382 0.660971 -0.348033 0
M  V30 3498 H 342.044 1.27947 -1.47022 0
M  V30 3499 H 341.14 2.80394 -1.37061 0
M  V30 3500 N 341.441 0.965919 1.2453 0
M  V30 3501 C 342.351 0.502154 2.29163 0
M  V30 3502 C 343.367 -0.436017 1.68448 0
M  V30 3503 O 344.543 -0.309497 1.99008 0
M  V30 3504 C 341.608 -0.201956 3.46111 0
M  V30 3505 C 340.669 0.775821 4.22232 0
M  V30 3506 C 339.902 0.105217 5.33596 0
M  V30 3507 O 340.125 -1.10683 5.59558 0
M  V30 3508 O 339.059 0.796475 5.96607 0
M  V30 3509 H 342.885 1.37194 2.70946 0
M  V30 3510 H 340.47 0.732875 1.30189 0
M  V30 3511 H 342.352 -0.597564 4.17142 0
M  V30 3512 H 341.027 -1.04673 3.06309 0
M  V30 3513 H 339.934 1.22185 3.53584 0
M  V30 3514 H 341.267 1.58896 4.65846 0
M  V30 3515 N 342.919 -1.39368 0.735821 0
M  V30 3516 C 344.144 -2.05319 0.293052 0
M  V30 3517 C 344.569 -1.55115 -1.064 0
M  V30 3518 O 343.927 -0.695261 -1.67439 0
M  V30 3519 C 343.975 -3.59305 0.305323 0
M  V30 3520 O 343.079 -4.06299 -0.706761 0
M  V30 3521 H 342.42 -0.650529 0.13307 0
M  V30 3522 H 344.95 -1.78386 1.00197 0
M  V30 3523 H 344.96 -4.07724 0.149997 0
M  V30 3524 H 343.635 -3.95207 1.29553 0
M  V30 3525 H 342.212 -3.69292 -0.517504 0
M  V30 3526 N 344.397 -0.483516 -1.5 0
M  V30 3527 C 345.307 0.309172 -2.32554 0
M  V30 3528 C 346.323 0.984159 -1.43493 0
M  V30 3529 O 347.499 0.969399 -1.76535 0
M  V30 3530 C 344.564 1.36979 -3.18493 0
M  V30 3531 C 343.625 0.710095 -4.23387 0
M  V30 3532 C 342.858 1.72018 -5.05218 0
M  V30 3533 O 343.081 2.94813 -4.88305 0
M  V30 3534 O 342.015 1.28515 -5.8802 0
M  V30 3535 H 345.841 -0.366064 -3.01486 0
M  V30 3536 H 343.426 -0.24514 -1.47375 0
M  V30 3537 H 345.308 1.98385 -3.71781 0
M  V30 3538 H 343.983 2.02828 -2.52275 0
M  V30 3539 H 342.89 0.0567539 -3.74057 0
M  V30 3540 H 344.223 0.0943557 -4.9211 0
M  V30 3541 N 345.875 1.56104 -0.216619 0
M  V30 3542 C 347.286 1.844 0.292128 0
M  V30 3543 C 347.637 1.13788 1.59833 0
M  V30 3544 O 346.762 0.405888 2.12559 0
M  V30 3545 C 347.357 3.3452 0.53681 0
M  V30 3546 C 345.916 3.63151 0.989876 0
M  V30 3547 C 345.063 2.77255 0.0502302 0
M  V30 3548 H 348.014 1.52481 -0.439926 0
M  V30 3549 H 348.035 3.54459 1.38345 0
M  V30 3550 H 347.547 3.85885 -0.414031 0
M  V30 3551 H 345.648 3.17238 1.95425 0
M  V30 3552 H 345.761 4.71177 0.867698 0
M  V30 3553 H 344.125 2.48555 0.556117 0
M  V30 3554 H 344.908 3.31416 -0.89544 0
M  V30 3555 N 347.353 -0.0568162 1.57498 0
M  V30 3556 C 348.285 -1.09292 2.01464 0
M  V30 3557 C 349.298 -1.34112 0.922913 0
M  V30 3558 O 350.487 -1.32089 1.20062 0
M  V30 3559 C 347.587 -2.44068 2.35125 0
M  V30 3560 C 346.76 -2.38995 3.66333 0
M  V30 3561 C 345.819 -3.55997 3.87495 0
M  V30 3562 O 344.845 -3.36746 4.58901 0
M  V30 3563 N 346.047 -4.76888 3.30996 0
M  V30 3564 H 348.812 -0.718386 2.90963 0
M  V30 3565 H 346.373 -0.245235 1.60032 0
M  V30 3566 H 348.365 -3.21011 2.46443 0
M  V30 3567 H 346.935 -2.73468 1.5144 0
M  V30 3568 H 346.155 -1.47336 3.65631 0
M  V30 3569 H 347.443 -2.3272 4.52458 0
M  V30 3570 H 346.841 -4.95431 2.73065 0
M  V30 3571 H 345.398 -5.51291 3.47738 0
M  V30 3572 N 348.832 -1.54138 -0.328536 0
M  V30 3573 C 350.06 -1.76062 -1.08673 0
M  V30 3574 C 350.475 -0.506852 -1.81869 0
M  V30 3575 O 349.832 0.522223 -1.74869 0
M  V30 3576 C 349.883 -2.95054 -2.08866 0
M  V30 3577 O 349.604 -4.15583 -1.38644 0
M  V30 3578 C 351.105 -3.2915 -2.96943 0
M  V30 3579 H 348.325 -0.587889 -0.323461 0
M  V30 3580 H 350.869 -2.0101 -0.376175 0
M  V30 3581 H 349.024 -2.72394 -2.75464 0
M  V30 3582 H 349.438 -4.82481 -2.05699 0
M  V30 3583 H 350.912 -4.15723 -3.63151 0
M  V30 3584 H 351.389 -2.461 -3.63774 0
M  V30 3585 H 351.995 -3.53871 -2.35914 0
M  V30 3586 N 350.31 0.590341 -1.46126 0
M  V30 3587 C 351.726 0.912917 -1.30912 0
M  V30 3588 C 351.926 1.99616 -0.274893 0
M  V30 3589 O 350.982 2.50397 0.325197 0
M  V30 3590 C 352.295 1.3375 -2.69317 0
M  V30 3591 C 353.843 1.45077 -2.77348 0
M  V30 3592 C 354.318 1.90904 -4.16317 0
M  V30 3593 N 355.809 1.9811 -4.18696 0
M  V30 3594 C 356.544 2.34828 -5.23109 0
M  V30 3595 N 356.04 2.70393 -6.37856 0
M  V30 3596 N 357.833 2.35317 -5.10473 0
M  V30 3597 H 349.984 -0.125358 -2.1203 0
M  V30 3598 H 352.247 0.00658481 -0.947977 0
M  V30 3599 H 351.953 0.615614 -3.4627 0
M  V30 3600 H 351.827 2.30058 -2.9892 0
M  V30 3601 H 354.214 2.16353 -2.00687 0
M  V30 3602 H 354.295 0.4704 -2.51438 0
M  V30 3603 H 353.939 1.20209 -4.9347 0
M  V30 3604 H 353.869 2.89886 -4.39629 0
M  V30 3605 H 356.36 1.73146 -3.359 0
M  V30 3606 H 356.673 2.97341 -7.13308 0
M  V30 3607 H 355.018 2.68048 -6.41229 0
M  V30 3608 H 358.209 2.0695 -4.19868 0
M  V30 3609 H 358.382 2.63605 -5.9196 0
M  V30 3610 N 351.788 1.33704 0.83433 0
M  V30 3611 C 353.013 1.28615 1.62705 0
M  V30 3612 C 353.438 -0.139242 1.87584 0
M  V30 3613 O 352.796 -1.09734 1.4432 0
M  V30 3614 C 352.844 2.07139 2.95171 0
M  V30 3615 O 351.948 1.4331 3.86699 0
M  V30 3616 H 351.289 0.44226 0.49528 0
M  V30 3617 H 353.819 1.76335 1.03766 0
M  V30 3618 H 353.829 2.18073 3.44831 0
M  V30 3619 H 352.504 3.10779 2.76386 0
M  V30 3620 H 351.081 1.4105 3.45195 0
M  V30 3621 N 353.266 -1.05314 1.17247 0
M  V30 3622 C 354.677 -1.59753 0.96623 0
M  V30 3623 C 355.028 -1.9005 -0.487378 0
M  V30 3624 O 354.153 -1.68126 -1.36245 0
M  V30 3625 C 354.748 -2.90249 1.74759 0
M  V30 3626 C 353.307 -3.41352 1.58606 0
M  V30 3627 C 352.454 -2.15103 1.75002 0
M  V30 3628 H 355.405 -0.881406 1.31973 0
M  V30 3629 H 355.426 -3.60097 1.22925 0
M  V30 3630 H 354.938 -2.68166 2.8055 0
M  V30 3631 H 353.039 -3.68474 0.552985 0
M  V30 3632 H 353.152 -4.16019 2.37624 0
M  V30 3633 H 351.516 -2.25804 1.17833 0
M  V30 3634 H 352.299 -1.95491 2.82202 0
M  V30 3635 N 354.744 -0.972509 -1.24016 0
M  V30 3636 C 355.654 -0.5143 -2.28893 0
M  V30 3637 C 356.67 0.427078 -1.68677 0
M  V30 3638 O 357.846 0.298939 -1.99169 0
M  V30 3639 C 354.911 0.183598 -3.46214 0
M  V30 3640 C 353.972 -0.798202 -4.21814 0
M  V30 3641 C 353.205 -0.133514 -5.33533 0
M  V30 3642 O 353.428 1.07714 -5.60137 0
M  V30 3643 O 352.362 -0.828103 -5.96176 0
M  V30 3644 H 356.188 -1.38629 -2.70214 0
M  V30 3645 H 353.773 -0.739769 -1.29799 0
M  V30 3646 H 355.655 0.575433 -4.17453 0
M  V30 3647 H 354.33 1.03048 -3.0686 0
M  V30 3648 H 353.237 -1.24059 -3.52931 0
M  V30 3649 H 354.57 -1.61364 -4.64997 0
M  V30 3650 N 356.222 1.38976 -0.743202 0
M  V30 3651 C 357.462 2.02193 -0.29954 0
M  V30 3652 C 357.826 1.5771 1.09506 0
M  V30 3653 O 359.027 2.13184 1.63726 0
M  V30 3654 C 357.298 3.55077 -0.406822 0
M  V30 3655 S 358.857 4.38778 -0.0442109 0
M  V30 3656 H 355.675 0.701335 -0.116836 0
M  V30 3657 H 358.277 1.69651 -0.971529 0
M  V30 3658 H 356.981 3.84942 -1.42295 0
M  V30 3659 H 356.512 3.92383 0.282707 0
M  V30 3660 H 358.527 4.82222 1.16947 0
M  V30 3661 N 357.7 0.491464 1.49741 0
M  V30 3662 C 358.928 -0.0535151 2.06831 0
M  V30 3663 C 359.343 -1.31683 1.35296 0
M  V30 3664 O 358.7 -1.77402 0.42836 0
M  V30 3665 C 358.751 -0.320835 3.60073 0
M  V30 3666 O 358.472 0.892394 4.28915 0
M  V30 3667 C 359.973 -0.910519 4.33848 0
M  V30 3668 H 357.193 0.0161909 0.670805 0
M  V30 3669 H 359.737 0.68609 1.92647 0
M  V30 3670 H 357.892 -1.0104 3.73991 0
M  V30 3671 H 358.306 0.649401 5.20464 0
M  V30 3672 H 359.78 -1.04721 5.41976 0
M  V30 3673 H 360.257 -1.90589 3.95692 0
M  V30 3674 H 360.863 -0.258712 4.24512 0
M  V30 3675 N 359.178 -1.55987 0.224894 0
M  V30 3676 C 360.128 -2.17076 -0.697296 0
M  V30 3677 C 361.112 -1.12006 -1.15514 0
M  V30 3678 O 362.304 -1.37985 -1.10857 0
M  V30 3679 C 359.433 -2.85679 -1.90374 0
M  V30 3680 C 358.519 -3.97977 -1.46543 0
M  V30 3681 N 358.91 -5.00359 -0.739909 0
M  V30 3682 C 357.208 -4.10128 -1.75245 0
M  V30 3683 C 357.909 -5.79407 -0.515939 0
M  V30 3684 N 356.885 -5.32892 -1.07364 0
M  V30 3685 H 360.687 -2.93592 -0.134594 0
M  V30 3686 H 358.201 -1.62379 0.0262885 0
M  V30 3687 H 360.198 -3.27857 -2.57518 0
M  V30 3688 H 358.858 -2.1066 -2.47088 0
M  V30 3689 H 359.869 -5.16412 -0.392253 0
M  V30 3690 H 356.546 -3.46263 -2.33255 0
M  V30 3691 H 357.936 -6.71872 0.0617349 0
M  V30 3692 N 360.656 0.0484629 -1.57525 0
M  V30 3693 C 361.566 1.07241 -2.08654 0
M  V30 3694 C 362.582 1.409 -1.02095 0
M  V30 3695 O 363.758 1.50609 -1.33712 0
M  V30 3696 C 360.823 2.36008 -2.5397 0
M  V30 3697 C 359.884 2.09108 -3.7493 0
M  V30 3698 C 359.117 3.31736 -4.18075 0
M  V30 3699 O 359.34 4.41714 -3.60895 0
M  V30 3700 O 358.274 3.18576 -5.10679 0
M  V30 3701 H 362.1 0.667965 -2.96263 0
M  V30 3702 H 359.685 0.26417 -1.47046 0
M  V30 3703 H 361.567 3.11747 -2.83535 0
M  V30 3704 H 360.242 2.75786 -1.69481 0
M  V30 3705 H 359.149 1.31 -3.50414 0
M  V30 3706 H 360.482 1.74198 -4.60343 0
M  V30 3707 N 362.134 1.5431 0.320358 0
M  V30 3708 C 363.359 1.76954 1.08175 0
M  V30 3709 C 363.784 0.518193 1.80821 0
M  V30 3710 O 363.142 -0.530411 1.73368 0
M  V30 3711 C 363.19 2.96451 2.05303 0
M  V30 3712 O 362.294 2.68221 3.13259 0
M  V30 3713 H 361.635 0.586275 0.311733 0
M  V30 3714 H 364.165 2.01342 0.363676 0
M  V30 3715 H 364.175 3.23887 2.48116 0
M  V30 3716 H 362.85 3.87196 1.51829 0
M  V30 3717 H 361.427 2.51744 2.75099 0
M  V30 3718 N 363.613 -0.582584 1.46437 0
M  V30 3719 C 365.024 -1.1647 1.45916 0
M  V30 3720 C 365.375 -1.95177 0.200077 0
M  V30 3721 O 364.5 -2.04874 -0.696819 0
M  V30 3722 C 365.095 -2.11885 2.64367 0
M  V30 3723 C 363.654 -2.65421 2.66887 0
M  V30 3724 C 362.801 -1.41294 2.38603 0
M  V30 3725 H 365.752 -0.370514 1.54314 0
M  V30 3726 H 365.773 -2.9535 2.39892 0
M  V30 3727 H 365.285 -1.54573 3.5599 0
M  V30 3728 H 363.386 -3.26602 1.79338 0
M  V30 3729 H 363.499 -3.08147 3.66854 0
M  V30 3730 H 361.863 -1.71109 1.88663 0
M  V30 3731 H 362.646 -0.858125 3.32402 0
M  V30 3732 N 365.091 -1.34144 -0.827227 0
M  V30 3733 C 366.021 -1.28005 -1.95287 0
M  V30 3734 C 367.002 -0.158321 -1.69362 0
M  V30 3735 O 368.187 -0.349987 -1.9102 0
M  V30 3736 C 365.317 -1.03036 -3.31664 0
M  V30 3737 C 364.271 -2.11628 -3.72019 0
M  V30 3738 C 363.597 -1.71854 -5.0633 0
M  V30 3739 C 364.897 -3.53417 -3.8457 0
M  V30 3740 H 366.591 -2.22187 -2.00682 0
M  V30 3741 H 364.137 -1.0696 -0.964135 0
M  V30 3742 H 366.09 -0.973863 -4.09993 0
M  V30 3743 H 364.814 -0.0529391 -3.26557 0
M  V30 3744 H 363.473 -2.16339 -2.95961 0
M  V30 3745 H 363.121 -0.727841 -4.97706 0
M  V30 3746 H 362.821 -2.44531 -5.34302 0
M  V30 3747 H 364.345 -1.67692 -5.87122 0
M  V30 3748 H 365.759 -3.51142 -4.5318 0
M  V30 3749 H 364.156 -4.24679 -4.2399 0
M  V30 3750 H 365.226 -3.91072 -2.86689 0
M  V30 3751 N 366.569 1.04691 -1.17803 0
M  V30 3752 C 367.479 2.16057 -0.914151 0
M  V30 3753 C 368.495 1.73589 0.119503 0
M  V30 3754 O 369.671 2.01308 -0.0609468 0
M  V30 3755 C 366.736 3.4394 -0.436603 0
M  V30 3756 C 365.797 4.00825 -1.53746 0
M  V30 3757 C 365.03 5.22604 -1.0826 0
M  V30 3758 O 365.253 5.70367 0.0612244 0
M  V30 3759 O 364.187 5.7186 -1.87775 0
M  V30 3760 H 368.013 2.41169 -1.84584 0
M  V30 3761 H 365.598 1.1453 -0.959334 0
M  V30 3762 H 367.48 4.21024 -0.178057 0
M  V30 3763 H 366.155 3.20316 0.466869 0
M  V30 3764 H 365.062 3.25158 -1.84995 0
M  V30 3765 H 366.395 4.28778 -2.41683 0
M  V30 3766 N 368.047 0.979072 1.23499 0
M  V30 3767 C 369.275 0.665202 1.95915 0
M  V30 3768 C 369.69 -0.767571 1.72493 0
M  V30 3769 O 369.047 -1.51635 1.01554 0
M  V30 3770 C 369.098 0.944438 3.48945 0
M  V30 3771 O 368.819 2.3209 3.71572 0
M  V30 3772 C 370.32 0.646336 4.38563 0
M  V30 3773 H 367.54 0.247218 0.623798 0
M  V30 3774 H 370.084 1.31009 1.57025 0
M  V30 3775 H 368.239 0.345575 3.85856 0
M  V30 3776 H 368.653 2.40957 4.65876 0
M  V30 3777 H 370.127 0.892091 5.44744 0
M  V30 3778 H 370.604 -0.419575 4.37191 0
M  V30 3779 H 371.21 1.22562 4.07258 0
M  V30 3780 N 369.525 -1.3858 0.750561 0
M  V30 3781 C 370.941 -1.53759 0.427824 0
M  V30 3782 C 371.141 -1.71401 -1.05943 0
M  V30 3783 O 370.197 -1.72331 -1.84549 0
M  V30 3784 C 371.51 -2.74642 1.22443 0
M  V30 3785 C 373.058 -2.88489 1.2142 0
M  V30 3786 C 373.533 -4.12329 1.9937 0
M  V30 3787 N 375.024 -4.194 1.96616 0
M  V30 3788 C 375.759 -5.14209 2.53727 0
M  V30 3789 N 375.255 -6.14709 3.19539 0
M  V30 3790 N 377.048 -5.06537 2.43673 0
M  V30 3791 H 369.199 -1.25377 1.71447 0
M  V30 3792 H 371.462 -0.608844 0.726645 0
M  V30 3793 H 371.168 -2.68 2.27747 0
M  V30 3794 H 371.042 -3.67745 0.839273 0
M  V30 3795 H 373.429 -2.94614 0.169232 0
M  V30 3796 H 373.51 -1.96406 1.63885 0
M  V30 3797 H 373.154 -4.06966 3.03877 0
M  V30 3798 H 373.084 -5.03486 1.54302 0
M  V30 3799 H 375.575 -3.47421 1.48684 0
M  V30 3800 H 375.888 -6.8354 3.60545 0
M  V30 3801 H 374.233 -6.1505 3.23633 0
M  V30 3802 H 377.424 -4.26962 1.91889 0
M  V30 3803 H 377.597 -5.80245 2.88479 0
M  V30 3804 N 371.003 -0.499398 -1.49478 0
M  V30 3805 C 371.951 0.293604 -2.3074 0
M  V30 3806 C 372.945 0.96427 -1.39277 0
M  V30 3807 O 374.151 0.892141 -1.56336 0
M  V30 3808 H 370.526 0.113541 -0.743379 0
M  V30 3809 H 372.497 -0.411772 -2.95545 0
M  V30 3810 C 371.246 1.3462 -3.20582 0
M  V30 3811 H 370.569 0.83954 -3.90886 0
M  V30 3812 H 372.009 1.87308 -3.80384 0
M  V30 3813 C 370.468 2.36351 -2.40083 0
M  V30 3814 O 370.998 3.422 -2.10385 0
M  V30 3815 N 369.204 2.0878 -2.02137 0
M  V30 3816 H 368.751 1.22723 -2.26488 0
M  V30 3817 H 368.709 2.77075 -1.48583 0
M  V30 3818 N 372.481 1.55866 -0.233164 0
M  V30 3819 C 373.73 1.97779 0.39579 0
M  V30 3820 C 374.043 1.12419 1.60066 0
M  V30 3821 O 375.249 1.44283 2.29988 0
M  V30 3822 C 373.705 3.5188 0.755556 0
M  V30 3823 C 373.313 4.45959 -0.427152 0
M  V30 3824 C 375.057 4.02479 1.34946 0
M  V30 3825 C 372.964 5.91383 -0.0443043 0
M  V30 3826 H 371.894 0.738592 0.15165 0
M  V30 3827 H 374.545 1.80486 -0.331212 0
M  V30 3828 H 372.927 3.64816 1.5403 0
M  V30 3829 H 374.101 4.44776 -1.20462 0
M  V30 3830 H 372.416 4.05765 -0.935068 0
M  V30 3831 H 375.013 5.08637 1.649 0
M  V30 3832 H 375.356 3.49014 2.26925 0
M  V30 3833 H 375.889 3.92813 0.62791 0
M  V30 3834 H 372.628 6.48857 -0.930874 0
M  V30 3835 H 372.148 5.95734 0.697238 0
M  V30 3836 H 373.827 6.45893 0.378334 0
M  V30 3837 N 373.959 -0.0401083 1.57549 0
M  V30 3838 C 374.922 -1.02871 2.04817 0
M  V30 3839 C 375.922 -1.29708 0.950388 0
M  V30 3840 O 377.112 -1.24897 1.21435 0
M  V30 3841 C 374.244 -2.36443 2.45576 0
M  V30 3842 H 375.437 -0.620631 2.93408 0
M  V30 3843 H 372.99 -0.286667 1.53649 0
M  V30 3844 H 373.725 -2.82021 1.60108 0
M  V30 3845 H 373.51 -2.18296 3.25713 0
M  V30 3846 H 375 -3.07441 2.82612 0
M  V30 3847 N 375.437 -1.54477 -0.31217 0
M  V30 3848 C 376.684 -1.73227 -1.04875 0
M  V30 3849 C 377.012 -0.512042 -1.87639 0
M  V30 3850 O 376.267 0.506131 -1.89042 0
M  V30 3851 C 376.566 -2.967 -1.99258 0
M  V30 3852 C 376.232 -4.30974 -1.32559 0
M  V30 3853 C 374.894 -4.67477 -1.141 0
M  V30 3854 C 377.246 -5.14258 -0.847835 0
M  V30 3855 C 374.574 -5.84852 -0.465326 0
M  V30 3856 C 376.926 -6.32327 -0.185931 0
M  V30 3857 C 375.59 -6.67499 0.0107077 0
M  V30 3858 H 374.86 -0.633881 -0.383765 0
M  V30 3859 H 377.507 -1.88727 -0.324731 0
M  V30 3860 H 375.812 -2.75935 -2.7815 0
M  V30 3861 H 377.509 -3.08401 -2.563 0
M  V30 3862 H 374.099 -4.02262 -1.4793 0
M  V30 3863 H 378.283 -4.86565 -0.978192 0
M  V30 3864 H 373.539 -6.10654 -0.301883 0
M  V30 3865 H 377.713 -6.96135 0.192211 0
M  V30 3866 H 375.34 -7.58306 0.536287 0
M  V30 3867 N 376.915 0.57481 -1.46744 0
M  V30 3868 C 378.162 1.33272 -1.52462 0
M  V30 3869 C 378.49 1.93669 -0.179572 0
M  V30 3870 O 377.745 1.7743 0.825664 0
M  V30 3871 C 378.044 2.476 -2.57738 0
M  V30 3872 C 377.71 2.05146 -4.01529 0
M  V30 3873 C 376.372 1.93284 -4.40676 0
M  V30 3874 C 378.724 1.72506 -4.91824 0
M  V30 3875 C 376.052 1.47049 -5.67973 0
M  V30 3876 C 378.404 1.27748 -6.19567 0
M  V30 3877 C 377.068 1.14468 -6.57612 0
M  V30 3878 H 376.338 0.487678 -0.557899 0
M  V30 3879 H 378.985 0.646456 -1.80259 0
M  V30 3880 H 377.29 3.21708 -2.23632 0
M  V30 3881 H 378.987 3.05807 -2.5939 0
M  V30 3882 H 375.577 2.15316 -3.7059 0
M  V30 3883 H 379.761 1.80552 -4.62293 0
M  V30 3884 H 375.017 1.35417 -5.96215 0
M  V30 3885 H 379.191 1.01547 -6.88957 0
M  V30 3886 H 376.818 0.78419 -7.56145 0
M  V30 3887 N 378.394 1.34581 0.820102 0
M  V30 3888 C 379.619 1.30333 1.61332 0
M  V30 3889 C 380.044 -0.119339 1.87721 0
M  V30 3890 O 379.402 -1.08197 1.45475 0
M  V30 3891 C 379.45 2.10258 2.92957 0
M  V30 3892 O 378.554 1.47404 3.85157 0
M  V30 3893 H 377.895 0.447488 0.490561 0
M  V30 3894 H 380.425 1.77425 1.01889 0
M  V30 3895 H 380.435 2.21718 3.42498 0
M  V30 3896 H 379.11 3.13693 2.73074 0
M  V30 3897 H 377.687 1.44703 3.43679 0
M  V30 3898 N 379.872 -1.04064 1.18357 0
M  V30 3899 C 381.1 -1.80916 1.00384 0
M  V30 3900 C 381.515 -1.83414 -0.447738 0
M  V30 3901 O 380.872 -1.26962 -1.31099 0
M  V30 3902 C 380.923 -3.26516 1.55144 0
M  V30 3903 O 380.644 -3.2424 2.94618 0
M  V30 3904 C 382.145 -4.20013 1.41789 0
M  V30 3905 H 379.365 -0.569728 0.354474 0
M  V30 3906 H 381.909 -1.31151 1.56906 0
M  V30 3907 H 380.064 -3.73512 1.02798 0
M  V30 3908 H 380.478 -4.15452 3.20156 0
M  V30 3909 H 381.952 -5.20111 1.84901 0
M  V30 3910 H 382.429 -4.37667 0.36661 0
M  V30 3911 H 383.035 -3.78881 1.93207 0
M  V30 3912 N 381.35 -0.985608 -1.22978 0
M  V30 3913 C 382.283 -0.47487 -2.23204 0
M  V30 3914 C 383.261 0.460865 -1.55932 0
M  V30 3915 O 384.445 0.388105 -1.84461 0
M  V30 3916 C 381.572 0.312427 -3.37256 0
M  V30 3917 C 380.618 -0.568219 -4.22698 0
M  V30 3918 S 381.451 -2.01919 -4.95973 0
M  V30 3919 C 382.607 -1.24118 -6.1347 0
M  V30 3920 H 382.84 -1.32419 -2.66181 0
M  V30 3921 H 380.373 -0.792005 -1.32539 0
M  V30 3922 H 382.331 0.760645 -4.03391 0
M  V30 3923 H 380.992 1.13693 -2.92801 0
M  V30 3924 H 380.185 0.0371657 -5.03986 0
M  V30 3925 H 379.787 -0.952897 -3.61657 0
M  V30 3926 H 382.079 -0.505121 -6.75614 0
M  V30 3927 H 383.022 -2.02907 -6.78406 0
M  V30 3928 H 383.43 -0.757669 -5.59392 0
M  V30 3929 N 382.828 1.3818 -0.7579 0
M  V30 3930 C 384.068 2.01864 -0.320968 0
M  V30 3931 C 384.432 1.58863 1.07827 0
M  V30 3932 O 385.633 2.14908 1.61456 0
M  V30 3933 C 383.904 3.54626 -0.44446 0
M  V30 3934 S 385.463 4.38706 -0.0907467 0
M  V30 3935 H 382.281 0.700056 -0.124268 0
M  V30 3936 H 384.883 1.68611 -0.989468 0
M  V30 3937 H 383.587 3.83411 -1.4637 0
M  V30 3938 H 383.118 3.92661 0.241073 0
M  V30 3939 H 385.133 4.83435 1.11826 0
M  V30 3940 N 384.306 0.507319 1.49211 0
M  V30 3941 C 385.236 -0.256939 2.32082 0
M  V30 3942 C 386.217 -0.956609 1.40652 0
M  V30 3943 O 387.402 -0.946788 1.69557 0
M  V30 3944 C 384.532 -1.31802 3.21318 0
M  V30 3945 C 383.486 -0.737855 4.21592 0
M  V30 3946 C 382.812 -1.89992 4.99807 0
M  V30 3947 C 384.112 0.275325 5.21574 0
M  V30 3948 H 385.806 0.434798 2.96226 0
M  V30 3949 H 383.352 0.210546 1.42452 0
M  V30 3950 H 385.305 -1.86045 3.78107 0
M  V30 3951 H 384.029 -2.03903 2.5513 0
M  V30 3952 H 382.688 -0.217126 3.65956 0
M  V30 3953 H 382.336 -2.60877 4.30061 0
M  V30 3954 H 382.036 -1.51777 5.6766 0
M  V30 3955 H 383.56 -2.44657 5.59442 0
M  V30 3956 H 384.974 -0.179193 5.7302 0
M  V30 3957 H 383.371 0.573649 5.97352 0
M  V30 3958 H 384.441 1.18903 4.70096 0
M  V30 3959 N 385.784 -1.5574 0.241426 0
M  V30 3960 C 386.694 -2.2479 -0.671305 0
M  V30 3961 C 387.71 -1.26217 -1.19772 0
M  V30 3962 O 388.886 -1.59079 -1.23514 0
M  V30 3963 C 385.951 -2.92966 -1.85396 0
M  V30 3964 C 385.012 -4.06935 -1.36756 0
M  V30 3965 C 384.245 -4.71851 -2.49384 0
M  V30 3966 O 384.468 -4.35823 -3.67987 0
M  V30 3967 O 383.402 -5.60467 -2.19454 0
M  V30 3968 H 387.228 -3.0349 -0.112966 0
M  V30 3969 H 384.813 -1.49397 0.0101513 0
M  V30 3970 H 386.695 -3.35927 -2.54423 0
M  V30 3971 H 385.37 -2.17211 -2.40002 0
M  V30 3972 H 384.277 -3.68503 -0.644726 0
M  V30 3973 H 385.61 -4.84492 -0.867647 0
M  V30 3974 N 387.262 0.0317525 -1.57568 0
M  V30 3975 C 388.51 0.721676 -1.88776 0
M  V30 3976 C 388.831 1.76039 -0.838772 0
M  V30 3977 O 388.101 1.95482 0.127935 0
M  V30 3978 H 386.681 0.269534 -0.696678 0
M  V30 3979 H 389.343 -0.00165879 -1.949 0
M  V30 3980 H 388.439 1.21293 -2.87566 0
M  V30 3981 N 388.74 1.54641 0.303973 0
M  V30 3982 C 389.968 1.77768 1.05858 0
M  V30 3983 C 390.383 0.535722 1.8104 0
M  V30 3984 O 389.74 -0.494337 1.75677 0
M  V30 3985 C 389.791 2.9834 2.04146 0
M  V30 3986 O 389.512 4.17736 1.32015 0
M  V30 3987 C 391.013 3.33832 2.91669 0
M  V30 3988 H 388.233 0.592961 0.314067 0
M  V30 3989 H 390.777 2.01583 0.344149 0
M  V30 3990 H 388.932 2.76742 2.71096 0
M  V30 3991 H 389.346 4.85693 1.97998 0
M  V30 3992 H 390.82 4.21448 3.56491 0
M  V30 3993 H 391.297 2.51857 3.59812 0
M  V30 3994 H 391.903 3.57579 2.30254 0
M  V30 3995 N 390.218 -0.567019 1.47046 0
M  V30 3996 C 391.464 -1.32658 1.53394 0
M  V30 3997 C 391.797 -1.93254 0.19148 0
M  V30 3998 O 391.072 -1.77338 -0.798844 0
M  V30 3999 C 391.355 -2.44412 2.64452 0
M  V30 4000 C 391.208 -1.88749 4.08282 0
M  V30 4001 C 392.527 -3.46387 2.71485 0
M  V30 4002 H 389.646 -0.48098 0.558415 0
M  V30 4003 H 392.288 -0.635481 1.79058 0
M  V30 4004 H 390.438 -3.03363 2.427 0
M  V30 4005 H 392.11 -1.34134 4.41368 0
M  V30 4006 H 390.353 -1.19481 4.17021 0
M  V30 4007 H 391.024 -2.69491 4.81745 0
M  V30 4008 H 393.5 -2.9734 2.91081 0
M  V30 4009 H 392.376 -4.2202 3.50985 0
M  V30 4010 H 392.637 -4.04616 1.78153 0
M  V30 4011 N 391.696 -1.35014 -0.812953 0
M  V30 4012 C 392.628 -1.23262 -1.93233 0
M  V30 4013 C 393.641 -0.157371 -1.62038 0
M  V30 4014 O 394.83 -0.410096 -1.73725 0
M  V30 4015 C 391.93 -0.87392 -3.27438 0
M  V30 4016 C 391.103 -2.04622 -3.86586 0
M  V30 4017 C 390.162 -1.66432 -4.99186 0
M  V30 4018 O 389.188 -2.38222 -5.16951 0
M  V30 4019 N 390.39 -0.584248 -5.77552 0
M  V30 4020 H 393.155 -2.19699 -2.03844 0
M  V30 4021 H 390.716 -1.281 -0.99005 0
M  V30 4022 H 392.708 -0.600039 -4.00227 0
M  V30 4023 H 391.278 0.00057392 -3.126 0
M  V30 4024 H 390.498 -2.48427 -3.06068 0
M  V30 4025 H 391.786 -2.82999 -4.22835 0
M  V30 4026 H 391.184 0.0123526 -5.65699 0
M  V30 4027 H 389.741 -0.37013 -6.50748 0
M  V30 4028 N 393.175 1.03435 -1.18907 0
M  V30 4029 C 394.423 1.76394 -0.986382 0
M  V30 4030 C 394.744 1.88883 0.484567 0
M  V30 4031 O 394.014 1.41843 1.3512 0
M  V30 4032 H 392.594 0.65344 -0.361975 0
M  V30 4033 H 395.256 1.248 -1.49703 0
M  V30 4034 H 394.352 2.77424 -1.42978 0
M  V30 4035 N 394.653 0.992116 1.22453 0
M  V30 4036 C 395.583 0.561677 2.26644 0
M  V30 4037 C 396.564 -0.411055 1.65059 0
M  V30 4038 O 397.749 -0.301861 1.9184 0
M  V30 4039 C 394.879 -0.125247 3.47074 0
M  V30 4040 C 393.833 0.765948 4.21091 0
M  V30 4041 C 393.159 -0.0538484 5.34673 0
M  V30 4042 C 394.459 2.06242 4.79856 0
M  V30 4043 H 396.153 1.43259 2.62902 0
M  V30 4044 H 393.699 0.690283 1.26377 0
M  V30 4045 H 395.652 -0.437764 4.1912 0
M  V30 4046 H 394.376 -1.03069 3.0991 0
M  V30 4047 H 393.035 1.0621 3.50878 0
M  V30 4048 H 392.683 -0.960188 4.9375 0
M  V30 4049 H 392.383 0.539415 5.85119 0
M  V30 4050 H 393.907 -0.360477 6.09535 0
M  V30 4051 H 395.321 1.8139 5.43848 0
M  V30 4052 H 393.718 2.60444 5.40638 0
M  V30 4053 H 394.788 2.74167 3.99951 0
M  V30 4054 N 396.131 -1.37776 0.765217 0
M  V30 4055 C 397.377 -2.00145 0.327072 0
M  V30 4056 C 397.71 -1.60607 -1.09175 0
M  V30 4057 O 396.985 -0.849127 -1.74986 0
M  V30 4058 C 397.268 -3.57109 0.46319 0
M  V30 4059 C 397.121 -4.06576 1.92395 0
M  V30 4060 C 398.44 -4.39888 -0.136473 0
M  V30 4061 H 395.559 -0.727113 0.120316 0
M  V30 4062 H 398.201 -1.63549 0.967039 0
M  V30 4063 H 396.351 -3.88414 -0.0816358 0
M  V30 4064 H 398.023 -3.85864 2.52798 0
M  V30 4065 H 396.266 -3.59011 2.43503 0
M  V30 4066 H 396.937 -5.15639 1.97028 0
M  V30 4067 H 399.413 -4.14803 0.328317 0
M  V30 4068 H 398.289 -5.48899 -0.0110582 0
M  V30 4069 H 398.55 -4.24758 -1.22608 0
M  V30 4070 N 397.609 -0.515225 -1.4894 0
M  V30 4071 C 398.855 0.0242508 -2.02785 0
M  V30 4072 C 399.188 1.35323 -1.39289 0
M  V30 4073 O 398.463 1.87041 -0.533469 0
M  V30 4074 C 398.746 0.16184 -3.59736 0
M  V30 4075 C 398.599 -1.19127 -4.33738 0
M  V30 4076 C 399.918 0.895719 -4.30888 0
M  V30 4077 H 397.037 0.00733914 -0.736963 0
M  V30 4078 H 399.679 -0.669395 -1.77818 0
M  V30 4079 H 397.829 0.752624 -3.8114 0
M  V30 4080 H 399.501 -1.82202 -4.23792 0
M  V30 4081 H 397.744 -1.77695 -3.95736 0
M  V30 4082 H 398.415 -1.04815 -5.41957 0
M  V30 4083 H 400.891 0.394528 -4.14225 0
M  V30 4084 H 399.767 0.960859 -5.40425 0
M  V30 4085 H 400.028 1.9427 -3.97129 0
M  V30 4086 N 399.087 1.5561 -0.249682 0
M  V30 4087 C 400.035 2.22894 0.664906 0
M  V30 4088 C 401.029 1.21743 1.17792 0
M  V30 4089 O 402.235 1.39748 1.13449 0
M  V30 4090 H 398.61 0.715022 0.232912 0
M  V30 4091 H 400.581 2.98307 0.0742998 0
M  V30 4092 C 399.33 2.94424 1.84959 0
M  V30 4093 H 398.653 3.72031 1.46399 0
M  V30 4094 H 400.093 3.44862 2.4667 0
M  V30 4095 C 398.552 1.98454 2.72245 0
M  V30 4096 O 399.082 1.51939 3.71857 0
M  V30 4097 N 397.288 1.65496 2.38871 0
M  V30 4098 H 396.835 2.03517 1.57919 0
M  V30 4099 H 396.793 1.0155 2.97548 0
M  V30 4100 N 400.565 -0.0233959 1.57583 0
M  V30 4101 C 401.793 -0.724682 1.93794 0
M  V30 4102 C 402.208 -1.68588 0.849912 0
M  V30 4103 O 401.565 -1.81676 -0.173204 0
M  V30 4104 C 401.616 -1.47684 3.29957 0
M  V30 4105 O 401.337 -0.554222 4.3458 0
M  V30 4106 C 402.838 -2.27477 3.80485 0
M  V30 4107 H 400.058 -0.203317 0.639455 0
M  V30 4108 H 402.602 0.0207653 2.04489 0
M  V30 4109 H 400.757 -2.17412 3.20641 0
M  V30 4110 H 401.171 -1.08232 5.13212 0
M  V30 4111 H 402.645 -2.7564 4.78254 0
M  V30 4112 H 403.122 -3.09144 3.11972 0
M  V30 4113 H 403.728 -1.62813 3.92902 0
M  V30 4114 N 402.043 -1.548 -0.295768 0
M  V30 4115 C 403.291 -1.73985 -1.02828 0
M  V30 4116 C 403.612 -0.531406 -1.87619 0
M  V30 4117 O 402.882 0.454221 -1.90561 0
M  V30 4118 H 401.462 -0.641556 -0.382642 0
M  V30 4119 H 404.124 -1.92163 -0.325489 0
M  V30 4120 H 403.22 -2.63129 -1.67838 0
M  V30 4121 N 403.521 0.559213 -1.47345 0
M  V30 4122 C 404.798 1.31997 -1.44348 0
M  V30 4123 C 405.178 2.1064 -0.139358 0
M  V30 4124 O 404.526 2.1091 0.879153 0
M  V30 4125 C 404.736 2.22618 -2.68779 0
M  V30 4126 C 406.084 2.83701 -3.1591 0
M  V30 4127 O 407.108 2.32921 -2.69493 0
M  V30 4128 O 405.967 3.75993 -3.966 0
M  V30 4129 H 403.061 0.594251 -0.575147 0
M  V30 4130 H 405.607 0.578282 -1.59543 0
M  V30 4131 H 404.379 1.64093 -3.55231 0
M  V30 4132 H 404.002 3.04085 -2.5616 0
M  V30 4133 N 404.999 1.35443 0.805782 0
M  V30 4134 C 406.415 1.15499 1.10146 0
M  V30 4135 C 406.615 -0.0319975 2.01475 0
M  V30 4136 O 405.671 -0.70236 2.42535 0
M  V30 4137 C 406.984 2.45833 1.73166 0
M  V30 4138 C 408.532 2.52047 1.85583 0
M  V30 4139 C 409.007 3.82427 2.52019 0
M  V30 4140 N 410.498 3.83682 2.59504 0
M  V30 4141 C 411.233 4.81294 3.11679 0
M  V30 4142 N 410.729 5.89294 3.64287 0
M  V30 4143 N 412.522 4.6873 3.1024 0
M  V30 4144 H 404.673 2.11469 0.198678 0
M  V30 4145 H 406.936 0.93594 0.150731 0
M  V30 4146 H 406.642 3.32874 1.13526 0
M  V30 4147 H 406.516 2.6044 2.72857 0
M  V30 4148 H 408.903 1.65435 2.44367 0
M  V30 4149 H 408.984 2.41354 0.847455 0
M  V30 4150 H 408.628 4.69437 1.93885 0
M  V30 4151 H 408.558 3.90409 3.53395 0
M  V30 4152 H 411.049 3.05648 2.22234 0
M  V30 4153 H 411.362 6.59768 4.02401 0
M  V30 4154 H 409.707 5.92985 3.62483 0
M  V30 4155 H 412.898 3.83496 2.68419 0
M  V30 4156 H 413.071 5.44965 3.50596 0
M  V30 4157 N 406.477 -1.02803 1.19454 0
M  V30 4158 C 407.705 -1.79841 1.02297 0
M  V30 4159 C 408.12 -1.83879 -0.428259 0
M  V30 4160 O 407.477 -1.28345 -1.29745 0
M  V30 4161 C 407.528 -3.24852 1.58598 0
M  V30 4162 O 407.249 -3.21097 2.98041 0
M  V30 4163 C 408.75 -4.18485 1.46236 0
M  V30 4164 H 405.97 -0.565936 0.360496 0
M  V30 4165 H 408.514 -1.2948 1.58288 0
M  V30 4166 H 406.669 -3.72401 1.06753 0
M  V30 4167 H 407.083 -4.12033 3.24545 0
M  V30 4168 H 408.557 -5.18121 1.90407 0
M  V30 4169 H 409.034 -4.37254 0.41301 0
M  V30 4170 H 409.64 -3.76811 1.97215 0
M  V30 4171 N 407.956 -0.998596 -1.21925 0
M  V30 4172 C 409.205 -0.673085 -1.90138 0
M  V30 4173 C 409.518 0.79895 -1.78539 0
M  V30 4174 O 410.724 1.23628 -2.4172 0
M  V30 4175 C 409.18 -1.15339 -3.40918 0
M  V30 4176 C 408.788 -2.65106 -3.61141 0
M  V30 4177 C 410.532 -0.902476 -4.14796 0
M  V30 4178 C 408.439 -3.0671 -5.05651 0
M  V30 4179 H 407.369 -0.248057 -0.712028 0
M  V30 4180 H 410.02 -1.20891 -1.38049 0
M  V30 4181 H 408.402 -0.545658 -3.92223 0
M  V30 4182 H 409.576 -3.31274 -3.20304 0
M  V30 4183 H 407.891 -2.88142 -3.00605 0
M  V30 4184 H 410.488 -1.18895 -5.21314 0
M  V30 4185 H 410.831 0.161349 -4.15987 0
M  V30 4186 H 411.364 -1.47269 -3.69536 0
M  V30 4187 H 408.103 -4.12292 -5.09603 0
M  V30 4188 H 407.623 -2.45249 -5.47369 0
M  V30 4189 H 409.302 -2.9833 -5.74115 0
M  V30 4190 N 409.434 1.37368 -0.772513 0
M  V30 4191 C 410.683 1.98918 -0.333861 0
M  V30 4192 C 410.996 1.62017 1.09589 0
M  V30 4193 O 412.202 2.16676 1.63596 0
M  V30 4194 C 410.658 3.55735 -0.545971 0
M  V30 4195 C 410.266 4.01573 -1.98603 0
M  V30 4196 C 412.01 4.24156 -0.170979 0
M  V30 4197 C 409.917 5.51102 -2.1457 0
M  V30 4198 H 408.847 0.744214 -0.121085 0
M  V30 4199 H 411.498 1.56888 -0.95175 0
M  V30 4200 H 409.88 3.95748 0.141387 0
M  V30 4201 H 411.054 3.72803 -2.7084 0
M  V30 4202 H 409.369 3.45937 -2.31769 0
M  V30 4203 H 411.966 5.34024 -0.26878 0
M  V30 4204 H 412.309 4.06917 0.878855 0
M  V30 4205 H 412.842 3.89447 -0.810914 0
M  V30 4206 H 409.581 5.73268 -3.17875 0
M  V30 4207 H 409.101 5.81554 -1.46817 0
M  V30 4208 H 410.78 6.17083 -1.94468 0
M  V30 4209 N 410.912 0.523116 1.48665 0
M  V30 4210 C 412.16 -0.0134497 2.02096 0
M  V30 4211 C 412.481 -1.35418 1.40311 0
M  V30 4212 O 411.751 -1.87543 0.566074 0
M  V30 4213 H 410.331 -0.00795915 0.746958 0
M  V30 4214 H 412.993 0.685388 1.82451 0
M  V30 4215 H 412.089 -0.126849 3.11842 0
M  V30 4216 N 412.39 -1.55475 0.257931 0
M  V30 4217 C 413.806 -1.59307 -0.0966563 0
M  V30 4218 C 414.006 -1.27514 -1.5602 0
M  V30 4219 O 413.062 -1.02774 -2.30637 0
M  V30 4220 C 414.375 -2.99552 0.262481 0
M  V30 4221 C 415.923 -3.1231 0.207683 0
M  V30 4222 C 416.398 -4.54793 0.541012 0
M  V30 4223 N 417.889 -4.6058 0.491921 0
M  V30 4224 C 418.624 -5.68825 0.722857 0
M  V30 4225 N 418.12 -6.85287 1.0175 0
M  V30 4226 N 419.913 -5.58296 0.652815 0
M  V30 4227 H 412.064 -1.74409 1.21224 0
M  V30 4228 H 414.327 -0.812424 0.48854 0
M  V30 4229 H 414.033 -3.27593 1.27967 0
M  V30 4230 H 413.907 -3.75019 -0.40508 0
M  V30 4231 H 416.294 -2.84044 -0.800195 0
M  V30 4232 H 416.375 -2.39095 0.909255 0
M  V30 4233 H 416.019 -4.83783 1.5465 0
M  V30 4234 H 415.949 -5.26285 -0.18216 0
M  V30 4235 H 418.44 -3.7691 0.273366 0
M  V30 4236 H 418.753 -7.63725 1.18084 0
M  V30 4237 H 417.098 -6.86945 1.05509 0
M  V30 4238 H 420.289 -4.66189 0.422592 0
M  V30 4239 H 420.462 -6.42582 0.836182 0
M  V30 4240 N 413.868 0.0150385 -1.57593 0
M  V30 4241 C 415.117 0.702115 -1.89085 0
M  V30 4242 C 415.43 1.75764 -0.858277 0
M  V30 4243 O 416.636 2.49829 -1.0629 0
M  V30 4244 C 415.092 1.29992 -3.35604 0
M  V30 4245 C 414.7 0.280007 -4.47124 0
M  V30 4246 C 416.444 1.96606 -3.76227 0
M  V30 4247 C 414.351 0.886949 -5.84711 0
M  V30 4248 H 413.281 0.265997 -0.705522 0
M  V30 4249 H 415.932 -0.0430408 -1.8345 0
M  V30 4250 H 414.314 2.09525 -3.36029 0
M  V30 4251 H 415.488 -0.489631 -4.58191 0
M  V30 4252 H 413.803 -0.284835 -4.15425 0
M  V30 4253 H 416.4 2.42893 -4.76347 0
M  V30 4254 H 416.743 2.79024 -3.08952 0
M  V30 4255 H 417.276 1.23828 -3.78036 0
M  V30 4256 H 414.015 0.101876 -6.55421 0
M  V30 4257 H 413.535 1.6261 -5.77337 0
M  V30 4258 H 415.214 1.39011 -6.3189 0
M  V30 4259 N 415.346 1.54954 0.287554 0
M  V30 4260 C 416.309 1.86076 1.33823 0
M  V30 4261 C 417.309 0.734414 1.43049 0
M  V30 4262 O 418.499 1.00266 1.42452 0
M  V30 4263 C 415.631 2.05305 2.72144 0
M  V30 4264 H 416.824 2.79984 1.07465 0
M  V30 4265 H 414.377 1.47223 0.524902 0
M  V30 4266 H 415.112 1.1373 3.03704 0
M  V30 4267 H 414.897 2.873 2.66836 0
M  V30 4268 H 416.387 2.30706 3.48087 0
M  V30 4269 N 416.824 -0.551391 1.4764 0
M  V30 4270 C 418.049 -1.33837 1.58437 0
M  V30 4271 C 418.474 -1.866 0.237063 0
M  V30 4272 O 417.832 -1.6328 -0.787994 0
M  V30 4273 C 417.88 -2.48014 2.61766 0
M  V30 4274 O 416.984 -3.50419 2.1744 0
M  V30 4275 H 416.325 -0.397299 0.532024 0
M  V30 4276 H 418.855 -0.665759 1.93465 0
M  V30 4277 H 418.865 -2.94503 2.82369 0
M  V30 4278 H 417.54 -2.08969 3.5959 0
M  V30 4279 H 416.117 -3.10196 2.06961 0
M  V30 4280 N 418.302 -1.35869 -0.798587 0
M  V30 4281 C 419.232 -1.32118 -1.92528 0
M  V30 4282 C 420.213 -0.194209 -1.68988 0
M  V30 4283 O 421.398 -0.390426 -1.90235 0
M  V30 4284 C 418.528 -1.10047 -3.29404 0
M  V30 4285 C 417.482 -2.19471 -3.67446 0
M  V30 4286 C 416.808 -1.82555 -5.02571 0
M  V30 4287 C 418.108 -3.61495 -3.76987 0
M  V30 4288 H 419.802 -2.26394 -1.95924 0
M  V30 4289 H 417.348 -1.08981 -0.94123 0
M  V30 4290 H 419.301 -1.06061 -4.07835 0
M  V30 4291 H 418.025 -0.122195 -3.26371 0
M  V30 4292 H 416.684 -2.22568 -2.91306 0
M  V30 4293 H 416.332 -0.833249 -4.9605 0
M  V30 4294 H 416.032 -2.5581 -5.28995 0
M  V30 4295 H 417.556 -1.80108 -5.83432 0
M  V30 4296 H 418.97 -3.60676 -4.4563 0
M  V30 4297 H 417.367 -4.33577 -4.14887 0
M  V30 4298 H 418.437 -3.97065 -2.78329 0
M  V30 4299 N 419.78 1.02168 -1.19998 0
M  V30 4300 C 420.743 2.08765 -0.94604 0
M  V30 4301 C 421.743 1.60618 0.0763846 0
M  V30 4302 O 422.933 1.73472 -0.159135 0
M  V30 4303 C 420.065 3.38262 -0.423255 0
M  V30 4304 H 421.258 2.32726 -1.89153 0
M  V30 4305 H 418.811 1.1889 -1.01464 0
M  V30 4306 H 419.546 3.19974 0.527938 0
M  V30 4307 H 419.331 3.74532 -1.16053 0
M  V30 4308 H 420.821 4.16759 -0.264911 0
M  V30 4309 N 421.258 1.00505 1.21394 0
M  V30 4310 C 422.483 0.706367 1.95001 0
M  V30 4311 C 422.908 -0.72463 1.73582 0
M  V30 4312 O 422.266 -1.49702 1.0227 0
M  V30 4313 C 422.314 1.03299 3.45487 0
M  V30 4314 O 421.418 0.138275 4.12168 0
M  V30 4315 H 420.759 0.263175 0.609619 0
M  V30 4316 H 423.289 1.34531 1.54151 0
M  V30 4317 H 423.299 0.979872 3.96059 0
M  V30 4318 H 421.974 2.07567 3.60401 0
M  V30 4319 H 420.551 0.247928 3.72075 0
M  V30 4320 N 422.737 -1.36956 0.779787 0
M  V30 4321 C 423.985 -1.99097 0.347079 0
M  V30 4322 C 424.306 -1.62206 -1.08232 0
M  V30 4323 O 423.576 -0.891373 -1.74446 0
M  V30 4324 H 422.156 -0.736409 0.125342 0
M  V30 4325 H 424.818 -1.67308 0.999696 0
M  V30 4326 H 423.914 -3.09107 0.431162 0
M  V30 4327 N 424.215 -0.530993 -1.48385 0
M  V30 4328 C 425.461 0.00274135 -2.028 0
M  V30 4329 C 425.794 1.33838 -1.40716 0
M  V30 4330 O 425.069 1.86465 -0.553277 0
M  V30 4331 C 425.352 0.123676 -3.59888 0
M  V30 4332 C 425.205 -1.2372 -4.3245 0
M  V30 4333 C 426.524 0.849967 -4.31814 0
M  V30 4334 H 423.643 -0.000477758 -0.737 0
M  V30 4335 H 426.285 -0.688217 -1.77098 0
M  V30 4336 H 424.435 0.712157 -3.81917 0
M  V30 4337 H 426.107 -1.86687 -4.21836 0
M  V30 4338 H 424.35 -1.81882 -3.93829 0
M  V30 4339 H 425.021 -1.10557 -5.40815 0
M  V30 4340 H 427.497 0.350572 -4.14621 0
M  V30 4341 H 426.373 0.903486 -5.41413 0
M  V30 4342 H 426.634 1.90047 -3.99167 0
M  V30 4343 N 425.693 1.55336 -0.266172 0
M  V30 4344 C 426.603 2.2583 0.635458 0
M  V30 4345 C 427.619 1.28106 1.17749 0
M  V30 4346 O 428.795 1.61024 1.20968 0
M  V30 4347 C 425.86 2.95879 1.80712 0
M  V30 4348 C 424.921 4.09059 1.30265 0
M  V30 4349 C 424.154 4.75759 2.41846 0
M  V30 4350 O 424.377 4.41622 3.61007 0
M  V30 4351 O 423.311 5.63888 2.1051 0
M  V30 4352 H 427.137 3.03631 0.0646693 0
M  V30 4353 H 424.722 1.49361 -0.0339177 0
M  V30 4354 H 426.604 3.39932 2.49047 0
M  V30 4355 H 425.279 2.21002 2.36516 0
M  V30 4356 H 424.186 3.69482 0.586019 0
M  V30 4357 H 425.519 4.85811 0.790458 0
M  V30 4358 N 427.171 -0.0066808 1.57599 0
M  V30 4359 C 428.119 -1.01851 2.09115 0
M  V30 4360 C 429.113 -1.36021 1.00969 0
M  V30 4361 O 430.319 -1.34663 1.19439 0
M  V30 4362 H 426.694 -0.346083 0.667631 0
M  V30 4363 H 428.665 -0.558394 2.93129 0
M  V30 4364 C 427.414 -2.30374 2.60429 0
M  V30 4365 H 426.737 -2.04947 3.43273 0
M  V30 4366 H 428.177 -2.99466 3.00161 0
M  V30 4367 C 426.636 -3.00893 1.51542 0
M  V30 4368 O 427.166 -3.91614 0.894484 0
M  V30 4369 N 425.372 -2.62603 1.2445 0
M  V30 4370 H 424.919 -1.88911 1.75129 0
M  V30 4371 H 424.877 -3.10101 0.518137 0
M  V30 4372 N 428.649 -1.55105 -0.279332 0
M  V30 4373 C 429.559 -1.90638 -1.36727 0
M  V30 4374 C 430.575 -0.802899 -1.54368 0
M  V30 4375 O 431.751 -1.10138 -1.68616 0
M  V30 4376 C 428.816 -2.16547 -2.70755 0
M  V30 4377 C 427.877 -3.40146 -2.61915 0
M  V30 4378 C 427.11 -3.6481 -3.8955 0
M  V30 4379 O 427.333 -2.92095 -4.89935 0
M  V30 4380 O 426.267 -4.58343 -3.90135 0
M  V30 4381 H 430.093 -2.83237 -1.09591 0
M  V30 4382 H 427.678 -1.4157 -0.477306 0
M  V30 4383 H 429.56 -2.34665 -3.50014 0
M  V30 4384 H 428.235 -1.27131 -2.9769 0
M  V30 4385 H 427.142 -3.2737 -1.81052 0
M  V30 4386 H 428.475 -4.29761 -2.3993 0
M  V30 4387 N 430.127 0.543554 -1.4793 0
M  V30 4388 C 431.074 1.64942 -1.6144 0
M  V30 4389 C 432.044 1.59692 -0.456903 0
M  V30 4390 O 433.229 1.78321 -0.678688 0
M  V30 4391 C 430.369 3.03238 -1.64744 0
M  V30 4392 C 429.482 3.18823 -2.91506 0
M  V30 4393 C 428.617 4.47599 -2.86057 0
M  V30 4394 C 427.656 4.56664 -4.07584 0
M  V30 4395 N 426.793 5.76811 -4.00292 0
M  V30 4396 H 431.633 1.52733 -2.55884 0
M  V30 4397 H 429.17 0.7438 -1.2691 0
M  V30 4398 H 431.128 3.83339 -1.64641 0
M  V30 4399 H 429.758 3.1425 -0.738017 0
M  V30 4400 H 428.81 2.32064 -3.01414 0
M  V30 4401 H 430.122 3.21384 -3.81463 0
M  V30 4402 H 429.276 5.35975 -2.84281 0
M  V30 4403 H 428.015 4.47538 -1.93807 0
M  V30 4404 H 427.02 3.66697 -4.09651 0
M  V30 4405 H 428.245 4.58474 -5.00978 0
M  V30 4406 H 426.191 5.77673 -3.10853 0
M  V30 4407 H 426.108 5.80808 -4.8394 0
M  V30 4408 H 427.376 6.67512 -4.02553 0
M  V30 4409 N 431.605 1.3629 0.791371 0
M  V30 4410 C 432.833 1.33562 1.58016 0
M  V30 4411 C 433.248 -0.0835616 1.88615 0
M  V30 4412 O 432.605 -1.0399 1.49974 0
M  V30 4413 C 432.656 2.15517 2.90232 0
M  V30 4414 O 432.377 3.51902 2.60953 0
M  V30 4415 C 433.878 2.20546 3.84544 0
M  V30 4416 H 431.098 0.458226 0.490173 0
M  V30 4417 H 433.642 1.79361 0.982345 0
M  V30 4418 H 431.797 1.73278 3.46487 0
M  V30 4419 H 432.211 3.94644 3.4548 0
M  V30 4420 H 433.685 2.82252 4.74382 0
M  V30 4421 H 434.162 1.20838 4.2225 0
M  V30 4422 H 434.768 2.63013 3.34222 0
M  V30 4423 N 433.083 -1.0153 1.20538 0
M  V30 4424 C 434.494 -1.56598 1.01657 0
M  V30 4425 C 434.845 -1.91505 -0.426668 0
M  V30 4426 O 433.97 -1.72375 -1.30827 0
M  V30 4427 C 434.565 -2.84542 1.83905 0
M  V30 4428 C 433.124 -3.36133 1.69386 0
M  V30 4429 C 432.271 -2.09427 1.81757 0
M  V30 4430 H 435.222 -0.838974 1.34711 0
M  V30 4431 H 435.243 -3.56004 1.34319 0
M  V30 4432 H 434.755 -2.59105 2.8894 0
M  V30 4433 H 432.856 -3.66528 0.669933 0
M  V30 4434 H 432.969 -4.08248 2.50739 0
M  V30 4435 H 431.333 -2.21941 1.24957 0
M  V30 4436 H 432.116 -1.86414 2.88279 0
M  V30 4437 N 434.561 -1.01147 -1.20859 0
M  V30 4438 C 435.81 -0.693214 -1.89413 0
M  V30 4439 C 436.123 0.779969 -1.79376 0
M  V30 4440 O 437.329 1.21057 -2.43017 0
M  V30 4441 C 435.785 -1.18949 -3.39675 0
M  V30 4442 C 435.393 -2.68921 -3.58309 0
M  V30 4443 C 437.137 -0.94642 -4.13815 0
M  V30 4444 C 435.044 -3.12056 -5.0237 0
M  V30 4445 H 433.974 -0.255595 -0.709357 0
M  V30 4446 H 436.625 -1.22349 -1.36759 0
M  V30 4447 H 435.007 -0.587228 -3.91622 0
M  V30 4448 H 436.181 -3.34652 -3.16772 0
M  V30 4449 H 434.496 -2.91314 -2.97532 0
M  V30 4450 H 437.093 -1.24417 -5.20023 0
M  V30 4451 H 437.436 0.117219 -4.16135 0
M  V30 4452 H 437.969 -1.5118 -3.67953 0
M  V30 4453 H 434.708 -4.17674 -5.05202 0
M  V30 4454 H 434.228 -2.51041 -5.44737 0
M  V30 4455 H 435.907 -3.04403 -5.70918 0
M  V30 4456 N 436.039 1.36541 -0.78704 0
M  V30 4457 C 437.002 2.28413 -0.189778 0
M  V30 4458 C 438.002 1.48719 0.611499 0
M  V30 4459 O 439.192 1.68737 0.432842 0
M  V30 4460 C 436.324 3.32824 0.737638 0
M  V30 4461 H 437.517 2.82743 -0.999831 0
M  V30 4462 H 435.07 1.46065 -0.556298 0
M  V30 4463 H 435.805 2.83646 1.57212 0
M  V30 4464 H 435.59 3.91752 0.165044 0
M  V30 4465 H 437.08 4.0144 1.15047 0
M  V30 4466 N 437.518 0.538854 1.48102 0
M  V30 4467 C 438.767 0.0059532 2.01699 0
M  V30 4468 C 439.08 -1.34476 1.42041 0
M  V30 4469 O 440.286 -1.96653 1.87189 0
M  V30 4470 C 438.742 -0.0397627 3.59878 0
M  V30 4471 C 438.35 1.30659 4.28523 0
M  V30 4472 C 440.094 -0.521024 4.2129 0
M  V30 4473 C 438.001 1.22098 5.78659 0
M  V30 4474 H 436.931 -0.00154456 0.753998 0
M  V30 4475 H 439.582 0.683963 1.70277 0
M  V30 4476 H 437.964 -0.783037 3.88181 0
M  V30 4477 H 439.138 2.06613 4.11883 0
M  V30 4478 H 437.453 1.7243 3.79021 0
M  V30 4479 H 440.05 -0.603184 5.31287 0
M  V30 4480 H 440.393 -1.52885 3.8721 0
M  V30 4481 H 440.926 0.166834 3.9745 0
M  V30 4482 H 437.665 2.20424 6.17328 0
M  V30 4483 H 437.185 0.50295 5.97688 0
M  V30 4484 H 438.864 0.915345 6.40492 0
M  V30 4485 N 438.996 -1.55193 0.274407 0
M  V30 4486 C 439.906 -2.26164 -0.623473 0
M  V30 4487 C 440.922 -1.28729 -1.17068 0
M  V30 4488 O 442.098 -1.61663 -1.20112 0
M  V30 4489 C 439.163 -2.96833 -1.7914 0
M  V30 4490 C 438.224 -4.09745 -1.28093 0
M  V30 4491 C 437.457 -4.77034 -2.3932 0
M  V30 4492 O 437.68 -4.4353 -3.5866 0
M  V30 4493 O 436.614 -5.64996 -2.07516 0
M  V30 4494 H 440.44 -3.03661 -0.0485661 0
M  V30 4495 H 438.025 -1.49341 0.0418382 0
M  V30 4496 H 439.907 -3.41248 -2.4724 0
M  V30 4497 H 438.582 -2.22253 -2.35341 0
M  V30 4498 H 437.489 -3.69787 -0.566416 0
M  V30 4499 H 438.822 -4.86224 -0.764683 0
M  V30 4500 N 440.474 -0.00167713 -1.576 0
M  V30 4501 C 441.723 0.682021 -1.89819 0
M  V30 4502 C 442.036 1.74844 -0.876871 0
M  V30 4503 O 443.242 2.48688 -1.08934 0
M  V30 4504 C 441.698 1.26425 -3.36964 0
M  V30 4505 C 441.306 0.232568 -4.47396 0
M  V30 4506 C 443.05 1.92604 -3.78291 0
M  V30 4507 C 440.957 0.824882 -5.85619 0
M  V30 4508 H 439.887 0.258499 -0.708304 0
M  V30 4509 H 442.538 -0.0624957 -1.83394 0
M  V30 4510 H 440.92 2.05949 -3.38232 0
M  V30 4511 H 442.094 -0.5382 -4.57646 0
M  V30 4512 H 440.409 -0.32888 -4.15099 0
M  V30 4513 H 443.006 2.37827 -4.78897 0
M  V30 4514 H 443.349 2.75732 -3.11894 0
M  V30 4515 H 443.882 1.19812 -3.79328 0
M  V30 4516 H 440.621 0.0323542 -6.55492 0
M  V30 4517 H 440.141 1.56477 -5.79029 0
M  V30 4518 H 441.82 1.32301 -6.33329 0
M  V30 4519 N 441.952 1.55251 0.271103 0
M  V30 4520 C 442.862 1.9136 1.35714 0
M  V30 4521 C 443.878 0.811075 1.5394 0
M  V30 4522 O 445.054 1.11031 1.6803 0
M  V30 4523 C 442.119 2.1798 2.69603 0
M  V30 4524 C 441.18 3.4153 2.60107 0
M  V30 4525 C 440.413 3.66871 3.8761 0
M  V30 4526 O 440.636 2.94689 4.8838 0
M  V30 4527 O 439.57 4.60405 3.87699 0
M  V30 4528 H 443.396 2.83815 1.08088 0
M  V30 4529 H 440.981 1.41821 0.469792 0
M  V30 4530 H 442.863 2.36518 3.48765 0
M  V30 4531 H 441.538 1.28708 2.97012 0
M  V30 4532 H 440.445 3.28325 1.79314 0
M  V30 4533 H 441.778 4.31027 2.37647 0
M  V30 4534 N 443.43 -0.535701 1.48216 0
M  V30 4535 C 444.38 -1.63688 1.58714 0
M  V30 4536 C 445.364 -1.54635 0.444615 0
M  V30 4537 O 446.556 -1.62753 0.695742 0
M  V30 4538 C 443.685 -3.02423 1.62466 0
M  V30 4539 C 442.771 -3.16601 2.82178 0
M  V30 4540 N 443.162 -3.00771 4.06658 0
M  V30 4541 C 441.46 -3.47645 2.79391 0
M  V30 4542 C 442.161 -3.18213 4.86945 0
M  V30 4543 N 441.137 -3.45528 4.19656 0
M  V30 4544 H 444.939 -1.5005 2.5271 0
M  V30 4545 H 442.453 -0.741018 1.44508 0
M  V30 4546 H 444.45 -3.81517 1.6808 0
M  V30 4547 H 443.11 -3.17157 0.695826 0
M  V30 4548 H 444.121 -2.77652 4.37184 0
M  V30 4549 H 440.798 -3.68771 1.95739 0
M  V30 4550 H 442.188 -3.1076 5.95716 0
M  V30 4551 N 444.908 -1.36708 -0.784132 0
M  V30 4552 C 446.155 -1.31231 -1.54222 0
M  V30 4553 C 446.483 0.106864 -1.94206 0
M  V30 4554 O 445.738 1.07734 -1.63376 0
M  V30 4555 C 446.037 -2.18571 -2.82774 0
M  V30 4556 C 445.703 -3.67039 -2.61903 0
M  V30 4557 C 444.365 -4.07503 -2.55919 0
M  V30 4558 C 446.717 -4.61149 -2.4288 0
M  V30 4559 C 444.045 -5.40211 -2.28886 0
M  V30 4560 C 446.397 -5.94081 -2.17373 0
M  V30 4561 C 445.061 -6.33664 -2.09825 0
M  V30 4562 H 444.331 -0.48021 -0.56434 0
M  V30 4563 H 446.978 -1.68807 -0.904233 0
M  V30 4564 H 445.283 -1.73949 -3.51068 0
M  V30 4565 H 446.98 -2.11655 -3.40592 0
M  V30 4566 H 443.57 -3.34941 -2.67418 0
M  V30 4567 H 447.754 -4.30756 -2.46501 0
M  V30 4568 H 443.01 -5.69855 -2.21529 0
M  V30 4569 H 447.184 -6.66566 -2.01649 0
M  V30 4570 H 444.811 -7.36423 -1.88641 0
M  V30 4571 N 446.386 1.0089 -1.21074 0
M  V30 4572 C 447.632 1.74866 -1.02712 0
M  V30 4573 C 447.965 1.89178 0.438787 0
M  V30 4574 O 447.24 1.42325 1.32567 0
M  V30 4575 C 447.523 3.16347 -1.72036 0
M  V30 4576 C 447.376 3.09782 -3.26121 0
M  V30 4577 C 448.695 4.15187 -1.45973 0
M  V30 4578 H 445.814 0.634736 -0.374539 0
M  V30 4579 H 448.456 1.17646 -1.49196 0
M  V30 4580 H 446.606 3.65201 -1.32517 0
M  V30 4581 H 448.278 2.68673 -3.74983 0
M  V30 4582 H 446.521 2.46982 -3.56626 0
M  V30 4583 H 447.192 4.09829 -3.6979 0
M  V30 4584 H 449.668 3.75022 -1.80272 0
M  V30 4585 H 448.544 5.12331 -1.96999 0
M  V30 4586 H 448.805 4.40386 -0.388924 0
M  V30 4587 N 447.864 1.01787 1.20321 0
M  V30 4588 C 449.141 0.622978 1.85414 0
M  V30 4589 C 449.521 -0.898887 1.91006 0
M  V30 4590 O 448.869 -1.79112 1.41884 0
M  V30 4591 C 449.079 1.27226 3.24984 0
M  V30 4592 C 450.427 1.3885 4.01255 0
M  V30 4593 O 451.451 1.22857 3.34342 0
M  V30 4594 O 450.31 1.64705 5.2109 0
M  V30 4595 H 447.404 0.215116 0.798533 0
M  V30 4596 H 449.95 1.11533 1.27901 0
M  V30 4597 H 448.722 2.31209 3.15687 0
M  V30 4598 H 448.345 0.767069 3.90131 0
M  V30 4599 N 449.342 -1.36122 0.79427 0
M  V30 4600 C 450.591 -1.98361 0.365464 0
M  V30 4601 C 450.904 -1.6374 -1.06997 0
M  V30 4602 O 452.11 -2.19251 -1.60129 0
M  V30 4603 C 450.566 -3.54821 0.602496 0
M  V30 4604 C 450.174 -3.98362 2.04967 0
M  V30 4605 C 451.918 -4.2383 0.238437 0
M  V30 4606 C 449.825 -5.47619 2.2331 0
M  V30 4607 H 448.755 -0.742193 0.13291 0
M  V30 4608 H 451.406 -1.55354 0.976589 0
M  V30 4609 H 449.788 -3.95922 -0.078409 0
M  V30 4610 H 450.962 -3.68447 2.76737 0
M  V30 4611 H 449.277 -3.42206 2.37243 0
M  V30 4612 H 451.874 -5.33529 0.353705 0
M  V30 4613 H 452.217 -4.08264 -0.814006 0
M  V30 4614 H 452.75 -3.88108 0.872769 0
M  V30 4615 H 449.489 -5.68138 3.26955 0
M  V30 4616 H 449.009 -5.79145 1.5605 0
M  V30 4617 H 450.688 -6.13911 2.0426 0
M  V30 4618 N 450.82 -0.546701 -1.47814 0
M  V30 4619 C 452.069 -0.0166497 -2.01693 0
M  V30 4620 C 452.382 1.33721 -1.42752 0
M  V30 4621 O 453.588 1.95658 -1.8823 0
M  V30 4622 C 452.044 0.0206769 -3.59894 0
M  V30 4623 C 451.652 -1.3293 -4.27824 0
M  V30 4624 C 453.396 0.498674 -4.21561 0
M  V30 4625 C 451.303 -1.25165 -5.78003 0
M  V30 4626 H 450.233 -0.0024541 -0.753996 0
M  V30 4627 H 452.884 -0.692984 -1.69912 0
M  V30 4628 H 451.266 0.76244 -3.88591 0
M  V30 4629 H 452.44 -2.08795 -4.10781 0
M  V30 4630 H 450.755 -1.74438 -3.78101 0
M  V30 4631 H 453.352 0.575 -5.31599 0
M  V30 4632 H 453.695 1.5083 -3.88016 0
M  V30 4633 H 454.228 -0.18791 -3.97356 0
M  V30 4634 H 450.967 -2.23695 -6.1615 0
M  V30 4635 H 450.487 -0.53464 -5.97412 0
M  V30 4636 H 452.166 -0.949299 -6.39998 0
M  V30 4637 N 452.299 1.55045 -0.282633 0
M  V30 4638 C 453.262 2.21515 0.588539 0
M  V30 4639 C 454.262 1.19535 1.07554 0
M  V30 4640 O 455.452 1.44391 0.974514 0
M  V30 4641 C 452.584 2.88704 1.8128 0
M  V30 4642 H 453.777 2.99899 0.00806397 0
M  V30 4643 H 451.33 1.56265 -0.0333067 0
M  V30 4644 H 452.065 2.14352 2.43359 0
M  V30 4645 H 451.85 3.63443 1.47144 0
M  V30 4646 H 453.34 3.39465 2.43214 0
M  V30 4647 N 453.777 0.010035 1.57597 0
M  V30 4648 C 455.025 -0.671371 1.90623 0
M  V30 4649 C 455.346 -1.73753 0.885151 0
M  V30 4650 O 454.616 -1.95752 -0.0760611 0
M  V30 4651 H 453.196 -0.250968 0.703579 0
M  V30 4652 H 455.858 0.0533325 1.94827 0
M  V30 4653 H 454.954 -1.13626 2.90681 0
M  V30 4654 N 455.255 -1.55392 -0.262866 0
M  V30 4655 C 456.185 -1.91978 -1.32917 0
M  V30 4656 C 457.166 -0.7828 -1.51017 0
M  V30 4657 O 458.351 -1.04178 -1.63892 0
M  V30 4658 C 455.481 -2.20055 -2.68687 0
M  V30 4659 C 454.435 -3.35854 -2.65304 0
M  V30 4660 C 453.761 -3.49435 -4.04721 0
M  V30 4661 C 455.061 -4.71977 -2.23685 0
M  V30 4662 H 456.755 -2.81292 -1.02544 0
M  V30 4663 H 454.301 -1.3534 -0.491846 0
M  V30 4664 H 456.254 -2.44237 -3.43404 0
M  V30 4665 H 454.978 -1.27551 -3.00663 0
M  V30 4666 H 453.637 -3.11655 -1.93045 0
M  V30 4667 H 453.285 -2.54379 -4.33936 0
M  V30 4668 H 452.985 -4.27297 -4.0335 0
M  V30 4669 H 454.509 -3.7592 -4.81161 0
M  V30 4670 H 455.923 -4.95637 -2.88127 0
M  V30 4671 H 454.32 -5.52828 -2.33456 0
M  V30 4672 H 455.39 -4.70115 -1.18827 0
M  V30 4673 N 456.733 0.527833 -1.48498 0
M  V30 4674 C 457.696 1.61439 -1.62696 0
M  V30 4675 C 458.696 1.52824 -0.500136 0
M  V30 4676 O 459.886 1.56456 -0.765976 0
M  V30 4677 C 457.018 3.01063 -1.59918 0
M  V30 4678 H 458.211 1.50189 -2.59583 0
M  V30 4679 H 455.764 0.750055 -1.37127 0
M  V30 4680 H 456.499 3.17818 -0.645163 0
M  V30 4681 H 456.284 3.08725 -2.41726 0
M  V30 4682 H 457.774 3.80057 -1.73051 0
M  V30 4683 N 458.211 1.37122 0.776871 0
M  V30 4684 C 459.46 1.31373 1.53049 0
M  V30 4685 C 459.773 -0.101016 1.95339 0
M  V30 4686 O 460.979 -0.280953 2.70042 0
M  V30 4687 C 459.435 2.30567 2.76346 0
M  V30 4688 C 459.043 3.77543 2.41175 0
M  V30 4689 C 460.787 2.33818 3.54301 0
M  V30 4690 C 458.694 4.68481 3.60943 0
M  V30 4691 H 457.624 0.488234 0.574581 0
M  V30 4692 H 460.275 1.62554 0.851372 0
M  V30 4693 H 458.657 1.92396 3.46121 0
M  V30 4694 H 459.831 4.24521 1.79216 0
M  V30 4695 H 458.146 3.77187 1.76405 0
M  V30 4696 H 460.743 2.98965 4.4331 0
M  V30 4697 H 461.086 1.3503 3.93793 0
M  V30 4698 H 461.619 2.7067 2.91518 0
M  V30 4699 H 458.358 5.68378 3.26537 0
M  V30 4700 H 457.878 4.2621 4.22025 0
M  V30 4701 H 459.557 4.85366 4.27819 0
M  V30 4702 N 459.689 -1.00246 1.21608 0
M  V30 4703 C 460.619 -2.10921 1.00172 0
M  V30 4704 C 461.6 -1.69938 -0.0741587 0
M  V30 4705 O 462.785 -1.94009 0.0861753 0
M  V30 4706 C 459.915 -3.42618 0.568355 0
M  V30 4707 C 458.869 -3.97407 1.58909 0
M  V30 4708 C 458.195 -5.25038 1.01187 0
M  V30 4709 C 459.495 -4.2918 2.97661 0
M  V30 4710 H 461.189 -2.29112 1.92739 0
M  V30 4711 H 458.735 -1.10101 0.928102 0
M  V30 4712 H 460.688 -4.19444 0.405555 0
M  V30 4713 H 459.412 -3.24227 -0.392961 0
M  V30 4714 H 458.071 -3.22703 1.73949 0
M  V30 4715 H 457.719 -5.02982 0.0421965 0
M  V30 4716 H 457.419 -5.62661 1.6937 0
M  V30 4717 H 458.943 -6.04507 0.860448 0
M  V30 4718 H 460.357 -4.96839 2.86049 0
M  V30 4719 H 458.754 -4.77952 3.6288 0
M  V30 4720 H 459.824 -3.3735 3.48315 0
M  V30 4721 N 461.167 -1.02423 -1.1978 0
M  V30 4722 C 462.414 -0.717988 -1.89344 0
M  V30 4723 C 462.742 0.753036 -1.79331 0
M  V30 4724 O 461.997 1.56355 -1.17692 0
M  V30 4725 C 462.296 -1.1088 -3.39765 0
M  V30 4726 C 461.962 -2.57731 -3.6998 0
M  V30 4727 C 460.624 -2.97854 -3.77937 0
M  V30 4728 C 462.976 -3.52763 -3.83677 0
M  V30 4729 C 460.304 -4.31931 -3.97054 0
M  V30 4730 C 462.656 -4.86538 -4.04306 0
M  V30 4731 C 461.32 -5.26356 -4.10494 0
M  V30 4732 H 460.59 -0.26273 -0.692859 0
M  V30 4733 H 463.237 -1.28623 -1.41875 0
M  V30 4734 H 461.542 -0.459094 -3.89101 0
M  V30 4735 H 463.239 -0.849432 -3.919 0
M  V30 4736 H 459.829 -2.25646 -3.64393 0
M  V30 4737 H 464.013 -3.2292 -3.76877 0
M  V30 4738 H 459.269 -4.62324 -4.00083 0
M  V30 4739 H 463.443 -5.60093 -4.13846 0
M  V30 4740 H 461.07 -6.3026 -4.2506 0
M  V30 4741 N 462.645 1.35699 -0.801477 0
M  V30 4742 C 463.893 1.9852 -0.37871 0
M  V30 4743 C 464.214 1.63907 1.05638 0
M  V30 4744 O 463.484 0.919013 1.73006 0
M  V30 4745 H 462.064 0.734322 -0.137042 0
M  V30 4746 H 464.726 1.65697 -1.02619 0
M  V30 4747 H 463.822 3.08382 -0.480284 0
M  V30 4748 N 464.123 0.554532 1.47522 0
M  V30 4749 C 465.086 -0.184174 2.28459 0
M  V30 4750 C 466.086 -0.845195 1.36796 0
M  V30 4751 O 467.276 -0.701467 1.59452 0
M  V30 4752 C 464.408 -1.26903 3.16399 0
M  V30 4753 H 465.601 0.526751 2.95238 0
M  V30 4754 H 463.154 0.311375 1.53167 0
M  V30 4755 H 463.889 -2.01244 2.54306 0
M  V30 4756 H 463.674 -0.799883 3.83854 0
M  V30 4757 H 465.164 -1.78794 3.77389 0
M  V30 4758 N 465.601 -1.54893 0.290851 0
M  V30 4759 C 466.829 -2.04343 -0.324288 0
M  V30 4760 C 467.244 -1.16859 -1.48289 0
M  V30 4761 O 466.601 -0.192018 -1.81487 0
M  V30 4762 C 466.652 -3.52756 -0.79026 0
M  V30 4763 O 466.373 -4.36913 0.322213 0
M  V30 4764 C 467.874 -4.18161 -1.4716 0
M  V30 4765 H 465.094 -0.667135 -0.0719173 0
M  V30 4766 H 467.638 -1.99981 0.427529 0
M  V30 4767 H 465.793 -3.57511 -1.49213 0
M  V30 4768 H 466.207 -5.24486 -0.0387372 0
M  V30 4769 H 467.681 -5.23562 -1.7489 0
M  V30 4770 H 468.158 -3.67282 -2.40834 0
M  V30 4771 H 468.764 -4.17454 -0.813178 0
M  V30 4772 N 467.08 -0.0183926 -1.57589 0
M  V30 4773 C 468.327 0.662562 -1.91354 0
M  V30 4774 C 468.655 1.72747 -0.893788 0
M  V30 4775 O 467.91 1.9545 0.0988509 0
M  V30 4776 C 468.209 1.32676 -3.31861 0
M  V30 4777 C 467.875 0.393267 -4.49182 0
M  V30 4778 C 466.537 0.136302 -4.81007 0
M  V30 4779 C 468.889 -0.248366 -5.20608 0
M  V30 4780 C 466.217 -0.770282 -5.81621 0
M  V30 4781 C 468.569 -1.14294 -6.22189 0
M  V30 4782 C 467.233 -1.4089 -6.52462 0
M  V30 4783 H 466.503 0.242448 -0.700214 0
M  V30 4784 H 469.15 -0.0778629 -1.91342 0
M  V30 4785 H 467.455 2.14168 -3.28084 0
M  V30 4786 H 469.152 1.86001 -3.55253 0
M  V30 4787 H 465.742 0.603723 -4.24327 0
M  V30 4788 H 469.926 -0.062883 -4.9626 0
M  V30 4789 H 465.182 -0.984154 -6.03427 0
M  V30 4790 H 469.356 -1.64637 -6.76659 0
M  V30 4791 H 466.983 -2.11306 -7.30242 0
M  V30 4792 N 468.558 1.5553 0.254621 0
M  V30 4793 C 469.805 1.77 0.983736 0
M  V30 4794 C 470.133 0.58133 1.85609 0
M  V30 4795 O 469.388 -0.435621 1.9079 0
M  V30 4796 C 469.687 3.03891 1.88109 0
M  V30 4797 C 469.353 4.35597 1.16472 0
M  V30 4798 C 468.015 4.7139 0.966714 0
M  V30 4799 C 470.367 5.1705 0.656387 0
M  V30 4800 C 467.695 5.86176 0.247942 0
M  V30 4801 C 470.047 6.32581 -0.0488807 0
M  V30 4802 C 468.711 6.67 -0.258438 0
M  V30 4803 H 467.981 0.647688 0.359974 0
M  V30 4804 H 470.628 1.89802 0.254463 0
M  V30 4805 H 468.933 2.86068 2.67717 0
M  V30 4806 H 470.63 3.17701 2.44677 0
M  V30 4807 H 467.22 4.07475 1.32899 0
M  V30 4808 H 471.404 4.8986 0.796933 0
M  V30 4809 H 466.66 6.11354 0.075035 0
M  V30 4810 H 470.834 6.94942 -0.450444 0
M  V30 4811 H 468.461 7.55793 -0.817358 0
M  V30 4812 N 470.036 -0.519951 1.48776 0
M  V30 4813 C 471.285 -1.27175 1.56555 0
M  V30 4814 C 471.598 -1.9401 0.248869 0
M  V30 4815 O 472.804 -2.70725 0.205004 0
M  V30 4816 C 471.26 -2.30811 2.76142 0
M  V30 4817 C 470.868 -1.7 4.14493 0
M  V30 4818 C 472.612 -3.06937 2.9324 0
M  V30 4819 C 470.519 -2.71635 5.25327 0
M  V30 4820 H 469.449 -0.478329 0.582853 0
M  V30 4821 H 472.1 -0.547916 1.75129 0
M  V30 4822 H 470.482 -3.06274 2.51023 0
M  V30 4823 H 471.656 -1.00658 4.49672 0
M  V30 4824 H 469.971 -1.06331 4.02595 0
M  V30 4825 H 472.568 -3.82905 3.73213 0
M  V30 4826 H 472.911 -3.63409 2.03075 0
M  V30 4827 H 473.444 -2.38589 3.18308 0
M  V30 4828 H 470.183 -2.1997 6.1749 0
M  V30 4829 H 469.703 -3.39275 4.94624 0
M  V30 4830 H 471.382 -3.34429 5.53865 0
M  V30 4831 N 471.514 -1.37532 -0.769588 0
M  V30 4832 C 472.76 -1.33057 -1.53048 0
M  V30 4833 C 473.093 0.0841865 -1.94017 0
M  V30 4834 O 472.368 1.04198 -1.64235 0
M  V30 4835 C 472.651 -2.27166 -2.79406 0
M  V30 4836 C 472.504 -3.77429 -2.44677 0
M  V30 4837 C 473.823 -2.19683 -3.81349 0
M  V30 4838 H 470.942 -0.484655 -0.555228 0
M  V30 4839 H 473.584 -1.68251 -0.882702 0
M  V30 4840 H 471.734 -1.97283 -3.34682 0
M  V30 4841 H 473.406 -4.17918 -1.953 0
M  V30 4842 H 471.649 -3.95892 -1.77346 0
M  V30 4843 H 472.32 -4.38716 -3.35011 0
M  V30 4844 H 474.796 -2.46029 -3.35573 0
M  V30 4845 H 473.672 -2.87668 -4.67481 0
M  V30 4846 H 473.933 -1.19045 -4.25771 0
M  V30 4847 N 472.992 0.995999 -1.22138 0
M  V30 4848 C 473.955 2.06711 -0.990109 0
M  V30 4849 C 474.955 1.60744 0.0422978 0
M  V30 4850 O 476.145 1.73095 -0.195895 0
M  V30 4851 C 473.277 3.37288 -0.49491 0
M  V30 4852 H 474.47 2.28661 -1.94047 0
M  V30 4853 H 472.023 1.16711 -1.03963 0
M  V30 4854 H 472.758 3.21022 0.459948 0
M  V30 4855 H 472.543 3.71986 -1.23971 0
M  V30 4856 H 474.033 4.16103 -0.353253 0
M  V30 4857 N 474.47 1.03057 1.19235 0
M  V30 4858 C 475.403 0.557384 2.21288 0
M  V30 4859 C 476.381 -0.402675 1.57535 0
M  V30 4860 O 477.565 -0.319376 1.85775 0
M  V30 4861 C 474.692 -0.187041 3.38183 0
M  V30 4862 C 473.738 0.72471 4.20298 0
M  V30 4863 S 474.571 2.20187 4.88137 0
M  V30 4864 C 475.727 1.46801 6.08441 0
M  V30 4865 H 475.96 1.42207 2.61083 0
M  V30 4866 H 473.493 0.840651 1.29508 0
M  V30 4867 H 475.451 -0.610405 4.05936 0
M  V30 4868 H 474.112 -1.02748 2.96819 0
M  V30 4869 H 473.305 0.149911 5.03777 0
M  V30 4870 H 472.907 1.08647 3.57871 0
M  V30 4871 H 475.199 0.755522 6.73274 0
M  V30 4872 H 476.142 2.27946 6.70407 0
M  V30 4873 H 476.55 0.964762 5.56195 0
M  V30 4874 N 475.948 -1.35272 0.808662 0
M  V30 4875 C 477.188 -2.00534 0.395668 0
M  V30 4876 C 477.552 -1.62755 -1.01857 0
M  V30 4877 O 478.753 -2.20752 -1.53368 0
M  V30 4878 C 477.024 -3.52732 0.575771 0
M  V30 4879 S 478.583 -4.38067 0.253507 0
M  V30 4880 H 475.401 -0.694962 0.150165 0
M  V30 4881 H 478.003 -1.64823 1.05137 0
M  V30 4882 H 476.707 -3.77714 1.60499 0
M  V30 4883 H 476.238 -3.93285 -0.0951739 0
M  V30 4884 H 478.253 -4.87252 -0.938068 0
M  V30 4885 N 477.426 -0.562348 -1.47226 0
M  V30 4886 C 478.675 -0.038041 -2.01664 0
M  V30 4887 C 478.988 1.32199 -1.44162 0
M  V30 4888 O 480.194 1.9365 -1.90294 0
M  V30 4889 C 478.65 -0.0174958 -3.59896 0
M  V30 4890 C 478.258 -1.3746 -4.2639 0
M  V30 4891 C 480.002 0.453934 -4.22066 0
M  V30 4892 C 477.909 -1.31289 -5.76643 0
M  V30 4893 H 476.839 -0.0104511 -0.753928 0
M  V30 4894 H 479.49 -0.710966 -1.69167 0
M  V30 4895 H 477.872 0.721182 -3.89378 0
M  V30 4896 H 479.046 -2.1314 -4.08544 0
M  V30 4897 H 477.361 -1.78438 -3.7623 0
M  V30 4898 H 479.958 0.518584 -5.32179 0
M  V30 4899 H 480.301 1.46706 -3.89594 0
M  V30 4900 H 480.834 -0.230044 -3.97134 0
M  V30 4901 H 477.573 -2.30217 -6.13743 0
M  V30 4902 H 477.093 -0.597973 -5.96812 0
M  V30 4903 H 478.772 -1.01713 -6.38955 0
M  V30 4904 N 478.904 1.54736 -0.299062 0
M  V30 4905 C 480.152 1.99706 0.31017 0
M  V30 4906 C 480.473 1.18896 1.54559 0
M  V30 4907 O 479.743 0.284445 1.93824 0
M  V30 4908 H 478.323 0.737686 0.117596 0
M  V30 4909 H 480.985 1.9054 -0.409943 0
M  V30 4910 H 480.081 3.06596 0.58355 0
M  V30 4911 N 480.382 0.0267497 1.57577 0
M  V30 4912 C 481.612 -0.6617 1.95717 0
M  V30 4913 C 482.02 -1.66331 0.901706 0
M  V30 4914 O 481.363 -1.83273 -0.125241 0
M  V30 4915 C 481.425 -1.42649 3.29987 0
M  V30 4916 C 481.089 -0.583482 4.5326 0
M  V30 4917 C 482.086 0.140221 5.19711 0
M  V30 4918 C 479.771 -0.521581 4.99585 0
M  V30 4919 C 481.765 0.914523 6.30805 0
M  V30 4920 C 479.452 0.256428 6.10562 0
M  V30 4921 C 480.45 0.973189 6.76031 0
M  V30 4922 O 480.138 1.73845 7.84878 0
M  V30 4923 H 479.87 -0.187483 0.649481 0
M  V30 4924 H 482.424 0.0820847 2.05236 0
M  V30 4925 H 480.654 -2.21536 3.16952 0
M  V30 4926 H 482.343 -2.00282 3.53047 0
M  V30 4927 H 483.109 0.101716 4.84893 0
M  V30 4928 H 478.988 -1.06904 4.48433 0
M  V30 4929 H 482.532 1.4745 6.81839 0
M  V30 4930 H 478.429 0.296657 6.44818 0
M  V30 4931 H 479.197 1.65797 8.01532 0
M  V30 4932 N 481.861 -1.55662 -0.24637 0
M  V30 4933 C 483.089 -1.81575 -0.991876 0
M  V30 4934 C 483.504 -0.602545 -1.78927 0
M  V30 4935 O 482.861 0.428795 -1.77391 0
M  V30 4936 C 482.912 -3.05711 -1.92933 0
M  V30 4937 O 482.633 -4.22348 -1.1642 0
M  V30 4938 C 484.134 -3.44428 -2.79078 0
M  V30 4939 H 481.354 -0.604209 -0.291844 0
M  V30 4940 H 483.898 -2.02722 -0.269095 0
M  V30 4941 H 482.053 -2.86612 -2.60638 0
M  V30 4942 H 482.467 -4.92706 -1.79835 0
M  V30 4943 H 483.941 -4.34388 -3.40603 0
M  V30 4944 H 484.418 -2.65037 -3.50217 0
M  V30 4945 H 485.024 -3.65879 -2.16824 0
M  V30 4946 N 483.339 0.512053 -1.4905 0
M  V30 4947 C 484.586 1.26686 -1.57978 0
M  V30 4948 C 484.914 1.92733 -0.261553 0
M  V30 4949 O 484.169 1.80772 0.749667 0
M  V30 4950 C 484.468 2.36446 -2.68008 0
M  V30 4951 C 484.134 1.87932 -4.09869 0
M  V30 4952 C 482.796 1.74419 -4.48477 0
M  V30 4953 C 485.148 1.5149 -4.98698 0
M  V30 4954 C 482.476 1.22827 -5.73699 0
M  V30 4955 C 484.828 1.01355 -6.24428 0
M  V30 4956 C 483.492 0.864735 -6.61875 0
M  V30 4957 H 482.762 0.463577 -0.578081 0
M  V30 4958 H 485.409 0.569421 -1.82838 0
M  V30 4959 H 483.714 3.11933 -2.37076 0
M  V30 4960 H 485.411 2.9453 -2.72127 0
M  V30 4961 H 482.001 1.99405 -3.79389 0
M  V30 4962 H 486.185 1.60782 -4.69535 0
M  V30 4963 H 481.441 1.10008 -6.01422 0
M  V30 4964 H 485.615 0.722351 -6.92644 0
M  V30 4965 H 483.242 0.462777 -7.5879 0
M  V30 4966 N 484.817 1.37938 0.762283 0
M  V30 4967 C 485.747 1.37176 1.88958 0
M  V30 4968 C 486.728 0.238945 1.68413 0
M  V30 4969 O 487.913 0.440726 1.89133 0
M  V30 4970 C 485.043 1.18742 3.2637 0
M  V30 4971 C 483.997 2.29136 3.61498 0
M  V30 4972 C 483.323 1.95816 4.97554 0
M  V30 4973 C 484.623 3.71363 3.6727 0
M  V30 4974 H 486.317 2.31509 1.89853 0
M  V30 4975 H 483.863 1.11438 0.912005 0
M  V30 4976 H 485.816 1.16837 4.04879 0
M  V30 4977 H 484.54 0.208683 3.25933 0
M  V30 4978 H 483.199 2.30213 2.85303 0
M  V30 4979 H 482.847 0.964475 4.93667 0
M  V30 4980 H 482.547 2.69745 5.22026 0
M  V30 4981 H 484.071 1.95513 5.78452 0
M  V30 4982 H 485.485 3.72364 4.35911 0
M  V30 4983 H 483.882 4.44425 4.03245 0
M  V30 4984 H 484.952 4.04305 2.67704 0
M  V30 4985 N 486.295 -0.989507 1.22664 0
M  V30 4986 C 487.711 -1.25395 0.987331 0
M  V30 4987 C 487.911 -1.9899 -0.317056 0
M  V30 4988 O 486.967 -2.30141 -1.03882 0
M  V30 4989 C 488.28 -2.06242 2.18826 0
M  V30 4990 C 489.828 -2.19413 2.23219 0
M  V30 4991 C 490.303 -3.03648 3.42873 0
M  V30 4992 N 491.794 -3.11234 3.43056 0
M  V30 4993 C 492.529 -3.7671 4.32293 0
M  V30 4994 N 492.025 -4.44085 5.31752 0
M  V30 4995 N 493.818 -3.73505 4.2006 0
M  V30 4996 H 485.969 -0.496212 2.06522 0
M  V30 4997 H 488.232 -0.281784 0.905153 0
M  V30 4998 H 487.938 -1.59531 3.13437 0
M  V30 4999 H 487.812 -3.06996 2.19165 0
M  V30 5000 H 490.199 -2.65336 1.29154 0
M  V30 5001 H 490.28 -1.18078 2.26917 0
M  V30 5002 H 489.924 -2.58424 4.37241 0
M  V30 5003 H 489.854 -4.05132 3.36416 0
M  V30 5004 H 492.345 -2.63287 2.71088 0
M  V30 5005 H 492.658 -4.91797 5.96117 0
M  V30 5006 H 491.003 -4.42822 5.35662 0
M  V30 5007 H 494.194 -3.20033 3.41609 0
M  V30 5008 H 494.367 -4.24253 4.8981 0
M  V30 5009 N 487.773 -1.03688 -1.18687 0
M  V30 5010 C 488.736 -0.629115 -2.20397 0
M  V30 5011 C 489.736 0.311495 -1.57754 0
M  V30 5012 O 490.926 0.0974107 -1.73927 0
M  V30 5013 C 488.058 0.0782231 -3.4081 0
M  V30 5014 H 489.251 -1.52915 -2.57987 0
M  V30 5015 H 486.804 -0.828988 -1.32505 0
M  V30 5016 H 487.539 0.992233 -3.08748 0
M  V30 5017 H 487.324 -0.597776 -3.87517 0
M  V30 5018 H 488.814 0.350156 -4.16129 0
M  V30 5019 N 489.251 1.34841 -0.815825 0
M  V30 5020 C 490.184 2.27504 -0.178062 0
M  V30 5021 C 491.162 1.48542 0.661373 0
M  V30 5022 O 492.346 1.77779 0.626653 0
M  V30 5023 C 489.473 3.30246 0.752002 0
M  V30 5024 C 488.519 4.26499 -0.00899172 0
M  V30 5025 S 489.352 5.18169 -1.35134 0
M  V30 5026 C 490.508 6.24449 -0.42596 0
M  V30 5027 H 490.741 2.81248 -0.963684 0
M  V30 5028 H 488.274 1.41781 -0.611355 0
M  V30 5029 H 490.232 3.89933 1.28308 0
M  V30 5030 H 488.893 2.75363 1.51109 0
M  V30 5031 H 488.086 4.99146 0.697766 0
M  V30 5032 H 487.688 3.7103 -0.470396 0
M  V30 5033 H 489.98 6.76404 0.385234 0
M  V30 5034 H 490.923 6.99156 -1.1219 0
M  V30 5035 H 491.331 5.64497 -0.0175461 0
M  V30 5036 N 490.729 0.570148 1.46925 0
M  V30 5037 C 491.975 0.0510284 2.02736 0
M  V30 5038 C 492.308 -1.3006 1.44215 0
M  V30 5039 O 491.583 -1.84932 0.602521 0
M  V30 5040 C 491.866 -0.028215 3.60089 0
M  V30 5041 C 491.719 1.35142 4.29018 0
M  V30 5042 C 493.038 -0.735181 4.33916 0
M  V30 5043 H 490.157 0.0200178 0.736728 0
M  V30 5044 H 492.799 0.73493 1.75211 0
M  V30 5045 H 490.949 -0.610648 3.83671 0
M  V30 5046 H 492.621 1.97806 4.16738 0
M  V30 5047 H 490.864 1.9226 3.88868 0
M  V30 5048 H 491.535 1.24857 5.37694 0
M  V30 5049 H 494.011 -0.240519 4.15404 0
M  V30 5050 H 492.887 -0.759622 5.43618 0
M  V30 5051 H 493.148 -1.79397 4.04066 0
M  V30 5052 N 492.207 -1.54576 0.307264 0
M  V30 5053 C 493.454 -2.00263 -0.300167 0
M  V30 5054 C 493.782 -1.19561 -1.53413 0
M  V30 5055 O 493.037 -0.261487 -1.93945 0
M  V30 5056 C 493.336 -3.50572 -0.695253 0
M  V30 5057 C 493.002 -4.48771 0.437679 0
M  V30 5058 C 491.664 -4.7534 0.748681 0
M  V30 5059 C 494.016 -5.0721 1.19949 0
M  V30 5060 C 491.344 -5.5761 1.8245 0
M  V30 5061 C 493.696 -5.90651 2.26527 0
M  V30 5062 C 492.36 -6.15528 2.58227 0
M  V30 5063 H 491.63 -0.732814 -0.109839 0
M  V30 5064 H 494.277 -1.86664 0.427661 0
M  V30 5065 H 492.582 -3.61814 -1.50326 0
M  V30 5066 H 494.279 -3.83352 -1.17653 0
M  V30 5067 H 490.869 -4.282 0.185187 0
M  V30 5068 H 495.053 -4.86679 0.972474 0
M  V30 5069 H 490.309 -5.75121 2.07476 0
M  V30 5070 H 494.483 -6.34957 2.86011 0
M  V30 5071 H 492.11 -6.79066 3.4172 0
M  V30 5072 N 493.685 -0.035106 -1.57561 0
M  V30 5073 C 494.932 0.642229 -1.92046 0
M  V30 5074 C 495.26 1.7179 -0.91206 0
M  V30 5075 O 494.515 1.95544 0.0781153 0
M  V30 5076 C 494.814 1.29149 -3.3325 0
M  V30 5077 C 494.48 0.345604 -4.49574 0
M  V30 5078 C 493.142 0.0852775 -4.81124 0
M  V30 5079 C 495.494 -0.303569 -5.20315 0
M  V30 5080 C 492.822 -0.831927 -5.80772 0
M  V30 5081 C 495.174 -1.20886 -6.20942 0
M  V30 5082 C 493.838 -1.47802 -6.50931 0
M  V30 5083 H 493.108 0.235008 -0.702746 0
M  V30 5084 H 495.755 -0.0981529 -1.91248 0
M  V30 5085 H 494.06 2.10676 -3.30337 0
M  V30 5086 H 495.757 1.82223 -3.57205 0
M  V30 5087 H 492.347 0.558683 -4.24943 0
M  V30 5088 H 496.531 -0.115515 -4.96166 0
M  V30 5089 H 491.787 -1.0481 -6.02349 0
M  V30 5090 H 495.961 -1.71804 -6.74875 0
M  V30 5091 H 493.588 -2.19039 -7.2796 0
M  V30 5092 N 495.163 1.55791 0.238111 0
M  V30 5093 C 496.096 1.86036 1.32158 0
M  V30 5094 C 497.074 0.716216 1.45976 0
M  V30 5095 O 498.258 0.962882 1.62052 0
M  V30 5096 C 495.385 2.05281 2.69402 0
M  V30 5097 C 494.431 3.27939 2.72687 0
M  V30 5098 S 495.264 4.84342 2.28413 0
M  V30 5099 C 496.42 5.06604 3.67565 0
M  V30 5100 H 496.653 2.77644 1.06306 0
M  V30 5101 H 494.186 1.48012 0.439537 0
M  V30 5102 H 496.144 2.17053 3.48423 0
M  V30 5103 H 494.805 1.14499 2.92487 0
M  V30 5104 H 493.998 3.38398 3.73501 0
M  V30 5105 H 493.6 3.14938 2.01717 0
M  V30 5106 H 495.892 4.94486 4.6313 0
M  V30 5107 H 496.835 6.08554 3.62033 0
M  V30 5108 H 497.243 4.34409 3.60485 0
M  V30 5109 N 496.642 -0.504142 1.49319 0
M  V30 5110 C 497.605 -1.5883 1.65244 0
M  V30 5111 C 498.605 -1.52009 0.524386 0
M  V30 5112 O 499.795 -1.55218 0.79077 0
M  V30 5113 C 496.927 -2.98481 1.64687 0
M  V30 5114 H 498.12 -1.4604 2.61939 0
M  V30 5115 H 495.673 -0.728144 1.38303 0
M  V30 5116 H 496.408 -3.16751 0.695644 0
M  V30 5117 H 496.193 -3.0484 2.46607 0
M  V30 5118 H 497.683 -3.77256 1.79075 0
M  V30 5119 N 498.12 -1.38341 -0.754957 0
M  V30 5120 C 499.369 -1.33791 -1.5094 0
M  V30 5121 C 499.682 0.0699267 -1.95475 0
M  V30 5122 O 500.888 0.237956 -2.70455 0
M  V30 5123 C 499.344 -2.34934 -2.72643 0
M  V30 5124 C 498.952 -3.81332 -2.35138 0
M  V30 5125 C 500.696 -2.39425 -3.50536 0
M  V30 5126 C 498.603 -4.74164 -3.53444 0
M  V30 5127 H 497.533 -0.497314 -0.566741 0
M  V30 5128 H 500.184 -1.63888 -0.825403 0
M  V30 5129 H 498.566 -1.97878 -3.43017 0
M  V30 5130 H 499.74 -4.27319 -1.7244 0
M  V30 5131 H 498.055 -3.79946 -1.70382 0
M  V30 5132 H 500.652 -3.0598 -4.38498 0
M  V30 5133 H 500.995 -1.41278 -3.91594 0
M  V30 5134 H 501.528 -2.75274 -2.87174 0
M  V30 5135 H 498.267 -5.73501 -3.17453 0
M  V30 5136 H 497.787 -4.3287 -4.15191 0
M  V30 5137 H 499.466 -4.92111 -4.20043 0
M  V30 5138 N 499.598 0.982988 -1.23187 0
M  V30 5139 C 500.844 1.72648 -1.06398 0
M  V30 5140 C 501.177 1.90066 0.398561 0
M  V30 5141 O 500.452 1.45105 1.29518 0
M  V30 5142 C 500.735 3.12627 -1.78707 0
M  V30 5143 C 500.588 3.02795 -3.32618 0
M  V30 5144 C 501.907 4.11997 -1.54747 0
M  V30 5145 H 499.026 0.626649 -0.387918 0
M  V30 5146 H 501.668 1.14455 -1.51658 0
M  V30 5147 H 499.818 3.62308 -1.40234 0
M  V30 5148 H 501.49 2.60659 -3.80598 0
M  V30 5149 H 499.733 2.39362 -3.61785 0
M  V30 5150 H 500.404 4.01893 -3.78399 0
M  V30 5151 H 502.88 3.71114 -1.88186 0
M  V30 5152 H 501.756 5.08037 -2.07821 0
M  V30 5153 H 502.017 4.39462 -0.482249 0
M  V30 5154 N 501.076 1.04316 1.18135 0
M  V30 5155 C 502.322 0.749128 1.88457 0
M  V30 5156 C 502.655 -0.72149 1.803 0
M  V30 5157 O 501.93 -1.52676 1.205 0
M  V30 5158 C 502.213 1.21905 3.38838 0
M  V30 5159 C 502.066 2.75195 3.55792 0
M  V30 5160 C 503.385 0.811085 4.32561 0
M  V30 5161 H 500.504 0.273611 0.684329 0
M  V30 5162 H 503.146 1.29561 1.38975 0
M  V30 5163 H 501.296 0.754137 3.8111 0
M  V30 5164 H 502.968 3.29743 3.22595 0
M  V30 5165 H 501.211 3.14899 2.98364 0
M  V30 5166 H 501.882 3.03135 4.61317 0
M  V30 5167 H 504.358 1.21118 3.98082 0
M  V30 5168 H 503.234 1.16761 5.36338 0
M  V30 5169 H 503.495 -0.285596 4.41177 0
M  V30 5170 N 502.554 -1.34406 0.822964 0
M  V30 5171 C 503.517 -2.2783 0.250271 0
M  V30 5172 C 504.517 -1.50288 -0.571854 0
M  V30 5173 O 505.707 -1.69825 -0.387952 0
M  V30 5174 C 502.839 -3.34663 -0.649137 0
M  V30 5175 H 504.032 -2.79992 1.07444 0
M  V30 5176 H 501.585 -1.44539 0.594829 0
M  V30 5177 H 502.32 -2.87714 -1.49637 0
M  V30 5178 H 502.105 -3.92052 -0.0611199 0
M  V30 5179 H 503.595 -4.04349 -1.04363 0
M  V30 5180 N 504.032 -0.577932 -1.46621 0
M  V30 5181 C 505.262 -0.0670668 -2.06491 0
M  V30 5182 C 505.67 1.24119 -1.42798 0
M  V30 5183 O 505.013 1.76016 -0.525759 0
M  V30 5184 C 505.075 0.177995 -3.59059 0
M  V30 5185 C 504.739 -1.04394 -4.44917 0
M  V30 5186 C 505.736 -1.95479 -4.81751 0
M  V30 5187 C 503.421 -1.26444 -4.86125 0
M  V30 5188 C 505.415 -3.06965 -5.58615 0
M  V30 5189 C 503.102 -2.38237 -5.62749 0
M  V30 5190 C 504.1 -3.28327 -5.98908 0
M  V30 5191 O 503.788 -4.38179 -6.73984 0
M  V30 5192 H 503.52 -0.0523159 -0.673973 0
M  V30 5193 H 506.074 -0.796966 -1.89308 0
M  V30 5194 H 504.304 0.962451 -3.74531 0
M  V30 5195 H 505.993 0.636782 -4.00874 0
M  V30 5196 H 506.759 -1.79657 -4.50498 0
M  V30 5197 H 502.638 -0.572316 -4.57434 0
M  V30 5198 H 506.182 -3.77309 -5.86757 0
M  V30 5199 H 502.079 -2.54023 -5.93416 0
M  V30 5200 H 502.847 -4.36486 -6.92403 0
M  V30 5201 N 505.51 1.54411 -0.315457 0
M  V30 5202 C 506.756 2.00716 0.289972 0
M  V30 5203 C 507.089 1.2034 1.5242 0
M  V30 5204 O 506.364 0.283579 1.92422 0
M  V30 5205 C 506.647 3.54507 0.632196 0
M  V30 5206 C 506.5 4.45615 -0.61218 0
M  V30 5207 C 507.819 4.15421 1.45305 0
M  V30 5208 H 504.938 0.729637 0.10392 0
M  V30 5209 H 507.58 1.8506 -0.430427 0
M  V30 5210 H 505.73 3.67979 1.24595 0
M  V30 5211 H 507.402 4.44026 -1.25053 0
M  V30 5212 H 505.645 4.15621 -1.24264 0
M  V30 5213 H 506.316 5.51022 -0.328379 0
M  V30 5214 H 508.792 4.05474 0.934331 0
M  V30 5215 H 507.668 5.23157 1.66127 0
M  V30 5216 H 507.929 3.68223 2.44671 0
M  V30 5217 N 506.988 0.0434614 1.5754 0
M  V30 5218 C 508.399 -0.493343 1.80064 0
M  V30 5219 C 508.75 -1.71388 0.955023 0
M  V30 5220 O 507.875 -2.15736 0.169434 0
M  V30 5221 C 508.47 -0.90179 3.26578 0
M  V30 5222 C 507.029 -1.38362 3.50047 0
M  V30 5223 C 506.176 -0.355129 2.75017 0
M  V30 5224 H 509.127 0.2694 1.56397 0
M  V30 5225 H 509.148 -1.76523 3.37075 0
M  V30 5226 H 508.66 -0.013271 3.88098 0
M  V30 5227 H 506.761 -2.29159 2.93798 0
M  V30 5228 H 506.874 -1.3811 4.58762 0
M  V30 5229 H 505.238 -0.826348 2.40922 0
M  V30 5230 H 506.021 0.525172 3.39259 0
M  V30 5231 N 508.466 -1.55915 -0.229846 0
M  V30 5232 C 509.376 -1.94891 -1.30593 0
M  V30 5233 C 510.392 -0.851604 -1.51736 0
M  V30 5234 O 511.568 -1.15447 -1.65027 0
M  V30 5235 C 508.633 -2.25052 -2.63728 0
M  V30 5236 C 507.694 -3.48306 -2.5096 0
M  V30 5237 C 506.927 -3.77019 -3.77747 0
M  V30 5238 O 507.15 -3.07534 -4.80395 0
M  V30 5239 O 506.084 -4.70523 -3.75356 0
M  V30 5240 H 509.91 -2.86581 -1.00525 0
M  V30 5241 H 507.495 -1.43017 -0.432025 0
M  V30 5242 H 509.377 -2.45682 -3.42372 0
M  V30 5243 H 508.052 -1.36538 -2.93495 0
M  V30 5244 H 506.959 -3.32964 -1.70546 0
M  V30 5245 H 508.292 -4.37177 -2.26136 0
M  V30 5246 N 509.944 0.496216 -1.49584 0
M  V30 5247 C 511.192 1.24756 -1.58998 0
M  V30 5248 C 511.513 1.92968 -0.280775 0
M  V30 5249 O 510.783 1.82959 0.700198 0
M  V30 5250 H 509.363 0.463471 -0.585836 0
M  V30 5251 H 512.025 0.574678 -1.86235 0
M  V30 5252 H 511.121 2.00895 -2.38847 0
M  V30 5253 N 511.423 1.38739 0.74761 0
M  V30 5254 C 512.353 1.39173 1.87492 0
M  V30 5255 C 513.334 0.256794 1.6815 0
M  V30 5256 O 514.519 0.460762 1.88655 0
M  V30 5257 C 511.649 1.22197 3.25093 0
M  V30 5258 C 510.603 2.32957 3.59047 0
M  V30 5259 C 509.929 2.01082 4.95449 0
M  V30 5260 C 511.229 3.75237 3.6331 0
M  V30 5261 H 512.923 2.3351 1.87386 0
M  V30 5262 H 510.469 1.12399 0.900134 0
M  V30 5263 H 512.422 1.21124 4.03617 0
M  V30 5264 H 511.146 0.243241 3.25693 0
M  V30 5265 H 509.805 2.33226 2.82845 0
M  V30 5266 H 509.453 1.01678 4.92616 0
M  V30 5267 H 509.153 2.75267 5.19136 0
M  V30 5268 H 510.677 2.01638 5.76346 0
M  V30 5269 H 512.091 3.76966 4.31937 0
M  V30 5270 H 510.488 4.48677 3.98509 0
M  V30 5271 H 511.558 4.07122 2.634 0
M  V30 5272 N 512.901 -0.976442 1.23707 0
M  V30 5273 C 513.831 -2.08749 1.04624 0
M  V30 5274 C 514.812 -1.70057 -0.0380956 0
M  V30 5275 O 515.997 -1.93782 0.127308 0
M  V30 5276 C 513.127 -3.41335 0.640902 0
M  V30 5277 C 512.081 -3.93947 1.67302 0
M  V30 5278 C 511.407 -5.22774 1.12301 0
M  V30 5279 C 512.707 -4.22769 3.06697 0
M  V30 5280 H 514.401 -2.24972 1.97555 0
M  V30 5281 H 511.947 -1.08108 0.951247 0
M  V30 5282 H 513.9 -4.18489 0.494434 0
M  V30 5283 H 512.624 -3.24988 -0.324099 0
M  V30 5284 H 511.283 -3.18941 1.80755 0
M  V30 5285 H 510.931 -5.0278 0.148877 0
M  V30 5286 H 510.631 -5.58942 1.81267 0
M  V30 5287 H 512.155 -6.02546 0.988479 0
M  V30 5288 H 513.569 -4.90659 2.96524 0
M  V30 5289 H 511.966 -4.70147 3.72937 0
M  V30 5290 H 513.036 -3.29885 3.55392 0
M  V30 5291 N 514.379 -1.04941 -1.1758 0
M  V30 5292 C 515.342 -0.652456 -2.19717 0
M  V30 5293 C 516.342 0.294745 -1.58076 0
M  V30 5294 O 517.532 0.0789579 -1.74021 0
M  V30 5295 C 514.664 0.0420712 -3.40874 0
M  V30 5296 H 515.857 -1.55642 -2.5635 0
M  V30 5297 H 513.41 -0.842995 -1.31618 0
M  V30 5298 H 514.145 0.95943 -3.09783 0
M  V30 5299 H 513.93 -0.638844 -3.86861 0
M  V30 5300 H 515.42 0.306 -4.16477 0
M  V30 5301 N 515.857 1.33968 -0.830081 0
M  V30 5302 C 517.085 2.0228 -0.434773 0
M  V30 5303 C 517.5 1.62487 0.961419 0
M  V30 5304 O 516.857 0.833849 1.62337 0
M  V30 5305 C 516.908 3.5751 -0.535625 0
M  V30 5306 O 516.629 3.95864 -1.87679 0
M  V30 5307 C 518.13 4.43091 -0.136137 0
M  V30 5308 H 515.35 0.648151 -0.173613 0
M  V30 5309 H 517.894 1.71089 -1.12022 0
M  V30 5310 H 516.049 3.87266 0.101817 0
M  V30 5311 H 516.463 4.9056 -1.85609 0
M  V30 5312 H 517.937 5.51398 -0.257772 0
M  V30 5313 H 518.414 4.29433 0.921076 0
M  V30 5314 H 519.02 4.18677 -0.747662 0
M  V30 5315 N 517.335 0.585699 1.46312 0
M  V30 5316 C 518.581 0.0725284 2.0267 0
M  V30 5317 C 518.914 -1.28523 1.45586 0
M  V30 5318 O 518.189 -1.84283 0.622101 0
M  V30 5319 C 518.472 0.0099788 3.60099 0
M  V30 5320 C 518.325 1.39685 4.27561 0
M  V30 5321 C 519.644 -0.689117 4.34671 0
M  V30 5322 H 516.763 0.0278307 0.736474 0
M  V30 5323 H 519.405 0.753472 1.74421 0
M  V30 5324 H 517.555 -0.56992 3.84297 0
M  V30 5325 H 519.227 2.02215 4.14617 0
M  V30 5326 H 517.47 1.96374 3.86807 0
M  V30 5327 H 518.141 1.30553 5.36339 0
M  V30 5328 H 520.617 -0.196446 4.15636 0
M  V30 5329 H 519.493 -0.701921 5.44393 0
M  V30 5330 H 519.754 -1.75101 4.05946 0
M  V30 5331 N 518.813 -1.54241 0.323641 0
M  V30 5332 C 520.041 -2.04985 -0.280871 0
M  V30 5333 C 520.456 -1.19978 -1.45777 0
M  V30 5334 O 519.813 -0.230471 -1.81039 0
M  V30 5335 C 519.864 -3.54353 -0.715258 0
M  V30 5336 O 519.585 -4.36132 0.414817 0
M  V30 5337 C 521.086 -4.21189 -1.38257 0
M  V30 5338 H 518.306 -0.66851 -0.0577502 0
M  V30 5339 H 520.85 -1.99029 0.469852 0
M  V30 5340 H 519.005 -3.60596 -1.41596 0
M  V30 5341 H 519.419 -5.2445 0.0725227 0
M  V30 5342 H 520.893 -5.27154 -1.63745 0
M  V30 5343 H 521.37 -3.72307 -2.32989 0
M  V30 5344 H 521.976 -4.19085 -0.724447 0
M  V30 5345 N 520.291 -0.0518155 -1.57515 0
M  V30 5346 C 521.537 0.622745 -1.93002 0
M  V30 5347 C 521.87 1.70456 -0.930499 0
M  V30 5348 O 521.145 1.94452 0.0434086 0
M  V30 5349 C 521.428 1.21824 -3.38867 0
M  V30 5350 C 521.281 0.144434 -4.49568 0
M  V30 5351 C 522.6 2.12968 -3.8514 0
M  V30 5352 H 519.719 0.22491 -0.701844 0
M  V30 5353 H 522.361 -0.113711 -1.89659 0
M  V30 5354 H 520.511 1.8459 -3.41846 0
M  V30 5355 H 522.183 -0.48753 -4.58717 0
M  V30 5356 H 520.426 -0.527424 -4.30582 0
M  V30 5357 H 521.097 0.601127 -5.48717 0
M  V30 5358 H 523.573 1.60163 -3.8404 0
M  V30 5359 H 522.449 2.51578 -4.87852 0
M  V30 5360 H 522.71 3.03004 -3.21934 0
M  V30 5361 N 521.769 1.56035 0.221574 0
M  V30 5362 C 523.009 1.80822 0.953038 0
M  V30 5363 C 523.373 0.625316 1.81532 0
M  V30 5364 O 524.574 0.752491 2.58052 0
M  V30 5365 C 522.845 3.10503 1.76983 0
M  V30 5366 S 524.404 3.56604 2.55693 0
M  V30 5367 H 521.222 0.634849 0.320137 0
M  V30 5368 H 523.824 1.94274 0.218619 0
M  V30 5369 H 522.528 3.94636 1.12651 0
M  V30 5370 H 522.059 2.99858 2.54655 0
M  V30 5371 H 524.074 3.1994 3.79279 0
M  V30 5372 N 523.247 -0.488276 1.49845 0
M  V30 5373 C 524.177 -1.59675 1.70371 0
M  V30 5374 C 525.158 -1.60878 0.552473 0
M  V30 5375 O 526.343 -1.77417 0.78973 0
M  V30 5376 C 523.473 -2.98098 1.782 0
M  V30 5377 C 522.427 -3.11761 2.93239 0
M  V30 5378 C 521.753 -4.51661 2.86193 0
M  V30 5379 C 523.053 -2.90589 4.33999 0
M  V30 5380 H 524.747 -1.42752 2.63177 0
M  V30 5381 H 522.293 -0.685317 1.26647 0
M  V30 5382 H 524.246 -3.75555 1.91144 0
M  V30 5383 H 522.97 -3.16138 0.820018 0
M  V30 5384 H 521.629 -2.36732 2.79917 0
M  V30 5385 H 521.277 -4.66595 1.87877 0
M  V30 5386 H 520.977 -4.61742 3.63412 0
M  V30 5387 H 522.501 -5.31162 3.01163 0
M  V30 5388 H 523.915 -3.57807 4.47936 0
M  V30 5389 H 522.312 -3.1213 5.12538 0
M  V30 5390 H 523.382 -1.86595 4.4756 0
M  V30 5391 N 524.725 -1.39134 -0.740242 0
M  V30 5392 C 525.95 -1.39518 -1.53459 0
M  V30 5393 C 526.375 0.00968883 -1.88098 0
M  V30 5394 O 525.733 0.995312 -1.51536 0
M  V30 5395 C 525.781 -2.26981 -2.802 0
M  V30 5396 O 524.885 -1.69609 -3.75908 0
M  V30 5397 H 524.226 -0.475328 -0.463637 0
M  V30 5398 H 526.756 -1.83064 -0.913717 0
M  V30 5399 H 526.766 -2.41309 -3.28989 0
M  V30 5400 H 525.441 -3.29081 -2.5432 0
M  V30 5401 H 524.018 -1.64495 -3.34658 0
M  V30 5402 N 526.204 0.969867 -1.24223 0
M  V30 5403 C 527.134 2.08191 -1.05729 0
M  V30 5404 C 528.115 1.70075 0.0290765 0
M  V30 5405 O 529.3 1.93712 -0.137583 0
M  V30 5406 C 526.43 3.40991 -0.658995 0
M  V30 5407 C 525.384 3.93054 -1.69389 0
M  V30 5408 C 524.71 5.22171 -1.15072 0
M  V30 5409 C 526.01 4.21137 -3.08935 0
M  V30 5410 H 527.704 2.23921 -1.98746 0
M  V30 5411 H 525.25 1.07602 -0.956967 0
M  V30 5412 H 527.203 4.18221 -0.51662 0
M  V30 5413 H 525.927 3.25155 0.30686 0
M  V30 5414 H 524.586 3.17977 -1.82444 0
M  V30 5415 H 524.234 5.02694 -0.175539 0
M  V30 5416 H 523.934 5.57973 -1.84229 0
M  V30 5417 H 525.458 6.02013 -1.02042 0
M  V30 5418 H 526.872 4.8908 -2.99121 0
M  V30 5419 H 525.269 4.68163 -3.75425 0
M  V30 5420 H 526.339 3.27996 -3.57137 0
M  V30 5421 N 527.682 1.05563 1.17022 0
M  V30 5422 C 528.91 0.78845 1.91288 0
M  V30 5423 C 529.325 -0.656318 1.77025 0
M  V30 5424 O 528.682 -1.44869 1.10992 0
M  V30 5425 C 528.733 1.16444 3.42232 0
M  V30 5426 O 528.454 2.5525 3.5606 0
M  V30 5427 C 529.955 0.923937 4.33565 0
M  V30 5428 H 527.175 0.286389 0.606813 0
M  V30 5429 H 529.719 1.4073 1.48375 0
M  V30 5430 H 527.874 0.590266 3.82877 0
M  V30 5431 H 528.288 2.70097 4.49609 0
M  V30 5432 H 529.762 1.23672 5.37968 0
M  V30 5433 H 530.239 -0.140688 4.38975 0
M  V30 5434 H 530.845 1.48214 3.98639 0
M  V30 5435 N 529.16 -1.33526 0.837174 0
M  V30 5436 C 530.123 -2.27551 0.274421 0
M  V30 5437 C 531.123 -1.50886 -0.555881 0
M  V30 5438 O 532.313 -1.70227 -0.369918 0
M  V30 5439 C 529.445 -3.35332 -0.613605 0
M  V30 5440 H 530.638 -2.78837 1.10408 0
M  V30 5441 H 528.191 -1.439 0.610126 0
M  V30 5442 H 528.926 -2.89285 -1.46577 0
M  V30 5443 H 528.711 -3.92095 -0.0195341 0
M  V30 5444 H 530.201 -4.05433 -1.00068 0
M  V30 5445 N 530.638 -0.59345 -1.46 0
M  V30 5446 C 531.585 0.133618 -2.30413 0
M  V30 5447 C 532.555 0.873736 -1.41262 0
M  V30 5448 O 533.74 0.862279 -1.70204 0
M  V30 5449 C 530.88 1.13434 -3.25924 0
M  V30 5450 C 529.993 0.39656 -4.30176 0
M  V30 5451 C 529.128 1.38575 -5.12806 0
M  V30 5452 C 528.167 0.634984 -6.08797 0
M  V30 5453 N 527.304 1.57276 -6.84258 0
M  V30 5454 H 532.144 -0.592252 -2.92055 0
M  V30 5455 H 529.681 -0.303874 -1.43927 0
M  V30 5456 H 531.639 1.72752 -3.79753 0
M  V30 5457 H 530.269 1.82779 -2.66067 0
M  V30 5458 H 529.321 -0.311861 -3.79119 0
M  V30 5459 H 530.633 -0.189869 -4.98438 0
M  V30 5460 H 529.787 2.05141 -5.70966 0
M  V30 5461 H 528.526 2.00611 -4.44529 0
M  V30 5462 H 527.531 -0.0443925 -5.49782 0
M  V30 5463 H 528.756 0.0198678 -6.79097 0
M  V30 5464 H 526.702 2.18103 -6.18682 0
M  V30 5465 H 526.619 1.03941 -7.48821 0
M  V30 5466 H 527.887 2.22844 -7.46968 0
M  V30 5467 N 532.116 1.54067 -0.331816 0
M  V30 5468 C 533.532 1.59587 0.0205388 0
M  V30 5469 C 533.732 1.34813 1.49759 0
M  V30 5470 O 532.788 1.13661 2.25471 0
M  V30 5471 C 534.101 2.97959 -0.405103 0
M  V30 5472 C 535.649 3.10964 -0.356454 0
M  V30 5473 C 536.124 4.51694 -0.757384 0
M  V30 5474 N 537.615 4.57709 -0.71111 0
M  V30 5475 C 538.35 5.64729 -0.993427 0
M  V30 5476 N 537.846 6.79652 -1.3433 0
M  V30 5477 N 539.639 5.54546 -0.918442 0
M  V30 5478 H 531.79 1.68426 -1.29407 0
M  V30 5479 H 534.053 0.78819 -0.526745 0
M  V30 5480 H 533.759 3.21115 -1.43451 0
M  V30 5481 H 533.633 3.76524 0.225692 0
M  V30 5482 H 536.02 2.87538 0.663763 0
M  V30 5483 H 536.101 2.34484 -1.02229 0
M  V30 5484 H 535.745 4.75853 -1.77555 0
M  V30 5485 H 535.675 5.26555 -0.0691444 0
M  V30 5486 H 538.166 3.75176 -0.452883 0
M  V30 5487 H 538.479 7.57221 -1.54388 0
M  V30 5488 H 536.824 6.81128 -1.38164 0
M  V30 5489 H 540.015 4.63641 -0.644536 0
M  V30 5490 H 540.188 6.37861 -1.14181 0
M  V30 5491 N 533.594 0.0601682 1.57485 0
M  V30 5492 C 534.524 -0.90889 2.15085 0
M  V30 5493 C 535.505 -1.31838 1.07484 0
M  V30 5494 O 536.69 -1.3915 1.35466 0
M  V30 5495 C 533.82 -2.18059 2.7031 0
M  V30 5496 C 532.774 -1.91088 3.82974 0
M  V30 5497 C 532.1 -3.24789 4.24754 0
M  V30 5498 C 533.4 -1.22535 5.07723 0
M  V30 5499 H 535.094 -0.429093 2.96309 0
M  V30 5500 H 532.64 -0.204952 1.42534 0
M  V30 5501 H 534.593 -2.86258 3.09248 0
M  V30 5502 H 533.317 -2.6826 1.8629 0
M  V30 5503 H 531.976 -1.25297 3.44523 0
M  V30 5504 H 531.624 -3.72809 3.37672 0
M  V30 5505 H 531.324 -3.07538 5.00694 0
M  V30 5506 H 532.848 -3.94205 4.66299 0
M  V30 5507 H 534.262 -1.80783 5.4405 0
M  V30 5508 H 532.659 -1.1558 5.88864 0
M  V30 5509 H 533.729 -0.202692 4.84476 0
M  V30 5510 N 535.072 -1.5615 -0.213296 0
M  V30 5511 C 536.035 -1.92249 -1.24792 0
M  V30 5512 C 537.035 -0.801828 -1.39382 0
M  V30 5513 O 538.225 -1.06948 -1.37506 0
M  V30 5514 C 535.357 -2.18056 -2.62039 0
M  V30 5515 H 536.55 -2.84793 -0.939845 0
M  V30 5516 H 534.103 -1.49559 -0.454062 0
M  V30 5517 H 534.838 -1.2809 -2.97932 0
M  V30 5518 H 534.623 -2.99703 -2.52825 0
M  V30 5519 H 536.113 -2.47051 -3.36683 0
M  V30 5520 N 536.55 0.480323 -1.50102 0
M  V30 5521 C 537.775 1.26126 -1.64642 0
M  V30 5522 C 538.2 1.85257 -0.325823 0
M  V30 5523 O 537.558 1.66854 0.709194 0
M  V30 5524 C 537.606 2.35243 -2.73301 0
M  V30 5525 O 536.71 3.39646 -2.33911 0
M  V30 5526 H 536.051 0.371463 -0.550374 0
M  V30 5527 H 538.581 0.572696 -1.96421 0
M  V30 5528 H 538.591 2.80695 -2.96098 0
M  V30 5529 H 537.266 1.91574 -3.6915 0
M  V30 5530 H 535.843 2.99969 -2.21525 0
M  V30 5531 N 538.028 1.39524 0.732853 0
M  V30 5532 C 538.975 1.38416 1.84688 0
M  V30 5533 C 539.945 0.243539 1.64305 0
M  V30 5534 O 541.13 0.438979 1.85681 0
M  V30 5535 C 538.27 1.23555 3.22224 0
M  V30 5536 C 537.383 2.47179 3.54298 0
M  V30 5537 C 536.518 2.2489 4.81246 0
M  V30 5538 C 535.557 3.44178 5.0617 0
M  V30 5539 N 534.694 3.21192 6.24323 0
M  V30 5540 H 539.534 2.33645 1.84971 0
M  V30 5541 H 537.071 1.16059 0.903804 0
M  V30 5542 H 539.029 1.12949 4.0162 0
M  V30 5543 H 537.659 0.31954 3.21215 0
M  V30 5544 H 536.711 2.68379 2.69587 0
M  V30 5545 H 538.023 3.36022 3.68633 0
M  V30 5546 H 537.177 2.11538 5.68627 0
M  V30 5547 H 535.916 1.33443 4.69089 0
M  V30 5548 H 534.921 3.58025 4.17251 0
M  V30 5549 H 536.146 4.36528 5.20212 0
M  V30 5550 H 534.092 2.32413 6.1345 0
M  V30 5551 H 534.009 4.03594 6.39256 0
M  V30 5552 H 535.277 3.1154 7.14537 0
M  V30 5553 N 539.506 -0.963266 1.24736 0
M  V30 5554 C 540.454 -2.07985 1.04139 0
M  V30 5555 C 541.448 -1.69381 -0.0250556 0
M  V30 5556 O 542.654 -1.79531 0.129863 0
M  V30 5557 H 539.029 -0.680627 0.319768 0
M  V30 5558 H 541 -2.22517 1.98818 0
M  V30 5559 C 539.749 -3.4123 0.667615 0
M  V30 5560 H 539.072 -3.71397 1.48 0
M  V30 5561 H 540.512 -4.20244 0.563136 0
M  V30 5562 C 538.971 -3.3104 -0.625647 0
M  V30 5563 O 539.501 -3.65334 -1.67016 0
M  V30 5564 N 537.707 -2.84168 -0.608033 0
M  V30 5565 H 537.254 -2.56458 0.242323 0
M  V30 5566 H 537.212 -2.77732 -1.47352 0
M  V30 5567 N 540.985 -1.06182 -1.16461 0
M  V30 5568 C 542.225 -0.787048 -1.8864 0
M  V30 5569 C 542.589 0.674093 -1.79778 0
M  V30 5570 O 543.79 1.06341 -2.46871 0
M  V30 5571 C 542.061 -1.2666 -3.34203 0
M  V30 5572 S 543.62 -1.12071 -4.24247 0
M  V30 5573 H 540.438 -0.285539 -0.651144 0
M  V30 5574 H 543.04 -1.35851 -1.40587 0
M  V30 5575 H 541.744 -2.32496 -3.38192 0
M  V30 5576 H 541.275 -0.689841 -3.87304 0
M  V30 5577 H 543.29 -0.0509341 -4.96174 0
M  V30 5578 N 542.463 1.3308 -0.844243 0
M  V30 5579 C 543.709 1.97898 -0.443206 0
M  V30 5580 C 544.042 1.66699 0.99625 0
M  V30 5581 O 543.317 0.949704 1.69738 0
M  V30 5582 C 543.6 3.53801 -0.670606 0
M  V30 5583 C 543.453 3.94667 -2.15772 0
M  V30 5584 C 544.772 4.39936 -0.120226 0
M  V30 5585 H 541.891 0.718861 -0.162504 0
M  V30 5586 H 544.533 1.57633 -1.06075 0
M  V30 5587 H 542.683 3.88229 -0.14496 0
M  V30 5588 H 544.355 3.70469 -2.74865 0
M  V30 5589 H 542.598 3.44203 -2.6402 0
M  V30 5590 H 543.269 5.03275 -2.26757 0
M  V30 5591 H 545.745 4.12183 -0.5696 0
M  V30 5592 H 544.621 5.4803 -0.308984 0
M  V30 5593 H 544.882 4.31184 0.976347 0
M  V30 5594 N 543.941 0.601185 1.45683 0
M  V30 5595 C 545.187 0.0940202 2.02582 0
M  V30 5596 C 545.52 -1.26972 1.46941 0
M  V30 5597 O 544.795 -1.83613 0.641612 0
M  V30 5598 C 545.078 0.0481715 3.60068 0
M  V30 5599 C 544.931 1.44212 4.26055 0
M  V30 5600 C 546.25 -0.642975 4.35378 0
M  V30 5601 H 543.369 0.0356404 0.736138 0
M  V30 5602 H 546.011 0.771929 1.73612 0
M  V30 5603 H 544.161 -0.529128 3.8488 0
M  V30 5604 H 545.833 2.06601 4.12449 0
M  V30 5605 H 544.076 2.00465 3.84703 0
M  V30 5606 H 544.747 1.36234 5.34925 0
M  V30 5607 H 547.223 -0.152351 4.15821 0
M  V30 5608 H 546.099 -0.644141 5.45107 0
M  V30 5609 H 546.36 -1.70785 4.0778 0
M  V30 5610 N 545.419 -1.53889 0.339982 0
M  V30 5611 C 546.366 -2.24902 -0.518452 0
M  V30 5612 C 547.336 -1.24593 -1.09844 0
M  V30 5613 O 548.521 -1.53317 -1.13572 0
M  V30 5614 C 545.661 -3.02262 -1.66529 0
M  V30 5615 C 544.774 -4.17418 -1.11295 0
M  V30 5616 C 543.909 -4.82273 -2.2268 0
M  V30 5617 C 542.948 -5.89503 -1.6478 0
M  V30 5618 N 542.085 -6.48153 -2.69893 0
M  V30 5619 H 546.925 -2.97853 0.0936579 0
M  V30 5620 H 544.462 -1.46986 0.0579924 0
M  V30 5621 H 546.42 -3.45371 -2.3404 0
M  V30 5622 H 545.05 -2.31614 -2.24844 0
M  V30 5623 H 544.102 -3.78976 -0.328886 0
M  V30 5624 H 545.414 -4.94554 -0.649414 0
M  V30 5625 H 544.568 -5.28435 -2.98063 0
M  V30 5626 H 543.307 -4.04552 -2.72376 0
M  V30 5627 H 542.312 -5.42728 -0.879004 0
M  V30 5628 H 543.537 -6.6913 -1.1594 0
M  V30 5629 H 541.483 -5.73298 -3.1885 0
M  V30 5630 H 541.4 -7.20752 -2.28151 0
M  V30 5631 H 542.668 -6.98968 -3.45056 0
M  V30 5632 N 546.897 -0.0685191 -1.57451 0
M  V30 5633 C 547.845 0.917577 -2.13736 0
M  V30 5634 C 548.839 1.31049 -1.07344 0
M  V30 5635 O 550.045 1.28811 -1.25728 0
M  V30 5636 H 546.42 0.313835 -0.683382 0
M  V30 5637 H 548.391 0.417903 -2.95459 0
M  V30 5638 C 547.14 2.17686 -2.71123 0
M  V30 5639 H 546.463 1.88336 -3.52661 0
M  V30 5640 H 547.903 2.84803 -3.14107 0
M  V30 5641 C 546.362 2.9332 -1.65726 0
M  V30 5642 O 546.892 3.86901 -1.08031 0
M  V30 5643 N 545.098 2.56367 -1.36837 0
M  V30 5644 H 544.645 1.80341 -1.83943 0
M  V30 5645 H 544.603 3.07276 -0.665501 0
M  V30 5646 N 548.375 1.56261 0.205012 0
M  V30 5647 C 549.305 1.96779 1.257 0
M  V30 5648 C 550.286 0.838309 1.48008 0
M  V30 5649 O 551.471 1.10189 1.59913 0
M  V30 5650 C 548.601 2.29876 2.60335 0
M  V30 5651 C 547.555 3.45469 2.52656 0
M  V30 5652 C 546.881 3.64215 3.91473 0
M  V30 5653 C 548.181 4.79954 2.06014 0
M  V30 5654 H 549.875 2.84904 0.920338 0
M  V30 5655 H 547.421 1.37072 0.441277 0
M  V30 5656 H 549.374 2.56814 3.34102 0
M  V30 5657 H 548.098 1.38622 2.95722 0
M  V30 5658 H 546.757 3.18605 1.81345 0
M  V30 5659 H 546.405 2.70309 4.24196 0
M  V30 5660 H 546.105 4.41973 3.87213 0
M  V30 5661 H 547.629 3.93519 4.66878 0
M  V30 5662 H 549.043 5.05989 2.69533 0
M  V30 5663 H 547.44 5.61111 2.12777 0
M  V30 5664 H 548.51 4.74201 1.01297 0
M  V30 5665 N 549.853 -0.472356 1.50355 0
M  V30 5666 C 550.763 -1.59637 1.7191 0
M  V30 5667 C 551.779 -1.63247 0.602195 0
M  V30 5668 O 552.955 -1.81139 0.880369 0
M  V30 5669 C 550.02 -2.9586 1.80742 0
M  V30 5670 C 549.081 -3.02649 3.04471 0
M  V30 5671 C 548.314 -4.32374 3.12872 0
M  V30 5672 O 548.537 -5.22807 2.28099 0
M  V30 5673 O 547.471 -4.44728 4.05587 0
M  V30 5674 H 551.297 -1.44373 2.67189 0
M  V30 5675 H 548.882 -0.651717 1.34436 0
M  V30 5676 H 550.764 -3.7677 1.88739 0
M  V30 5677 H 549.439 -3.11325 0.88647 0
M  V30 5678 H 548.346 -2.20821 3.01975 0
M  V30 5679 H 549.679 -2.92119 3.9614 0
M  V30 5680 N 551.331 -1.39911 -0.725443 0
M  V30 5681 C 552.294 -1.39156 -1.82121 0
M  V30 5682 C 553.294 -0.287018 -1.58218 0
M  V30 5683 O 554.484 -0.545421 -1.65441 0
M  V30 5684 C 551.616 -1.1736 -3.20062 0
M  V30 5685 H 552.809 -2.36672 -1.84191 0
M  V30 5686 H 550.362 -1.25615 -0.930079 0
M  V30 5687 H 551.097 -0.205648 -3.23647 0
M  V30 5688 H 550.882 -1.97358 -3.3881 0
M  V30 5689 H 552.372 -1.19596 -4.00108 0
M  V30 5690 N 552.809 0.956637 -1.25245 0
M  V30 5691 C 554.055 1.70352 -1.10036 0
M  V30 5692 C 554.388 1.90869 0.358156 0
M  V30 5693 O 553.663 1.47819 1.26411 0
M  V30 5694 C 553.946 3.08766 -1.85298 0
M  V30 5695 C 553.799 2.95672 -3.38966 0
M  V30 5696 C 555.118 4.08622 -1.63451 0
M  V30 5697 H 552.237 0.618279 -0.401123 0
M  V30 5698 H 554.879 1.11212 -1.54051 0
M  V30 5699 H 553.029 3.59252 -1.47887 0
M  V30 5700 H 554.701 2.52527 -3.86041 0
M  V30 5701 H 552.944 2.31634 -3.6678 0
M  V30 5702 H 553.615 3.93776 -3.86839 0
M  V30 5703 H 556.091 3.67038 -1.96015 0
M  V30 5704 H 554.967 5.03514 -2.18551 0
M  V30 5705 H 555.228 4.3834 -0.575357 0
M  V30 5706 N 554.287 1.06798 1.15896 0
M  V30 5707 C 555.197 0.694564 2.24083 0
M  V30 5708 C 556.213 -0.291687 1.71538 0
M  V30 5709 O 557.389 -0.139723 2.00915 0
M  V30 5710 C 554.454 0.0921014 3.46578 0
M  V30 5711 C 553.515 1.13087 4.14137 0
M  V30 5712 C 552.748 0.557064 5.30785 0
M  V30 5713 O 552.971 -0.628623 5.66925 0
M  V30 5714 O 551.905 1.29924 5.8771 0
M  V30 5715 H 555.731 1.59663 2.58344 0
M  V30 5716 H 553.316 0.840575 1.2351 0
M  V30 5717 H 555.198 -0.241884 4.20705 0
M  V30 5718 H 553.873 -0.78337 3.14078 0
M  V30 5719 H 552.78 1.51712 3.41957 0
M  V30 5720 H 554.113 1.97805 4.50704 0
M  V30 5721 N 555.766 -1.3263 0.851289 0
M  V30 5722 C 556.994 -2.01563 0.466899 0
M  V30 5723 C 557.409 -1.63996 -0.935447 0
M  V30 5724 O 556.766 -0.85957 -1.6099 0
M  V30 5725 C 556.817 -3.56613 0.592433 0
M  V30 5726 O 556.538 -3.92828 1.93954 0
M  V30 5727 C 558.039 -4.42818 0.206612 0
M  V30 5728 H 555.259 -0.645307 0.183902 0
M  V30 5729 H 557.803 -1.69285 1.1473 0
M  V30 5730 H 555.958 -3.87379 -0.0401936 0
M  V30 5731 H 556.372 -4.87545 1.9339 0
M  V30 5732 H 557.846 -5.50918 0.345462 0
M  V30 5733 H 558.323 -4.30844 -0.85264 0
M  V30 5734 H 558.929 -4.17434 0.814176 0
M  V30 5735 N 557.244 -0.608902 -1.45362 0
M  V30 5736 C 558.174 0.0964526 -2.33301 0
M  V30 5737 C 559.155 0.857444 -1.46908 0
M  V30 5738 O 560.34 0.827735 -1.75676 0
M  V30 5739 C 557.47 1.09354 -3.29635 0
M  V30 5740 C 556.424 0.445676 -4.25673 0
M  V30 5741 C 555.75 1.5511 -5.11708 0
M  V30 5742 C 557.05 -0.633972 -5.18438 0
M  V30 5743 H 558.744 -0.637829 -2.92527 0
M  V30 5744 H 556.29 -0.308178 -1.40664 0
M  V30 5745 H 558.243 1.59556 -3.90025 0
M  V30 5746 H 556.967 1.85843 -2.6857 0
M  V30 5747 H 555.626 -0.0354897 -3.66583 0
M  V30 5748 H 555.274 2.30631 -4.4701 0
M  V30 5749 H 554.974 1.12311 -5.76767 0
M  V30 5750 H 556.498 2.05537 -5.74967 0
M  V30 5751 H 557.912 -0.215974 -5.72893 0
M  V30 5752 H 556.309 -0.983789 -5.91981 0
M  V30 5753 H 557.379 -1.51005 -4.60788 0
M  V30 5754 N 558.722 1.53707 -0.348139 0
M  V30 5755 C 559.97 2.00591 0.246478 0
M  V30 5756 C 560.291 1.23753 1.50699 0
M  V30 5757 O 559.561 0.345964 1.92821 0
M  V30 5758 H 558.141 0.741053 0.0940679 0
M  V30 5759 H 560.803 1.89139 -0.470354 0
M  V30 5760 H 559.899 3.08297 0.485714 0
M  V30 5761 N 560.2 0.0768682 1.57412 0
M  V30 5762 C 561.425 -0.603404 1.98428 0
M  V30 5763 C 561.85 -1.62047 0.955108 0
M  V30 5764 O 561.208 -1.81129 -0.0786778 0
M  V30 5765 C 561.256 -1.24396 3.38464 0
M  V30 5766 O 560.36 -2.35982 3.3821 0
M  V30 5767 H 559.701 -0.154741 0.645718 0
M  V30 5768 H 562.231 0.152885 2.04028 0
M  V30 5769 H 562.241 -1.5896 3.7576 0
M  V30 5770 H 560.916 -0.498735 4.12899 0
M  V30 5771 H 559.493 -2.03173 3.1269 0
M  V30 5772 N 561.678 -1.56367 -0.196722 0
M  V30 5773 C 562.906 -1.84639 -0.933608 0
M  V30 5774 C 563.321 -0.659164 -1.76919 0
M  V30 5775 O 562.678 0.372142 -1.78665 0
M  V30 5776 C 562.729 -3.11694 -1.83109 0
M  V30 5777 O 562.45 -4.25838 -1.02924 0
M  V30 5778 C 563.951 -3.53132 -2.67979 0
M  V30 5779 H 561.171 -0.613188 -0.272473 0
M  V30 5780 H 563.715 -2.03475 -0.204465 0
M  V30 5781 H 561.87 -2.94759 -2.51387 0
M  V30 5782 H 562.284 -4.98178 -1.64069 0
M  V30 5783 H 563.758 -4.45005 -3.26611 0
M  V30 5784 H 564.235 -2.76045 -3.41608 0
M  V30 5785 H 564.841 -3.72592 -2.05074 0
M  V30 5786 N 563.156 0.464375 -1.50603 0
M  V30 5787 C 564.381 1.24372 -1.65971 0
M  V30 5788 C 564.806 1.84901 -0.345453 0
M  V30 5789 O 564.164 1.67596 0.691457 0
M  V30 5790 C 564.212 2.32331 -2.7578 0
M  V30 5791 O 563.316 3.37146 -2.375 0
M  V30 5792 H 562.657 0.365604 -0.554283 0
M  V30 5793 H 565.187 0.55183 -1.97018 0
M  V30 5794 H 565.197 2.77539 -2.99059 0
M  V30 5795 H 563.872 1.87648 -3.71162 0
M  V30 5796 H 562.449 2.97602 -2.24694 0
M  V30 5797 N 564.634 1.40294 0.718013 0
M  V30 5798 C 565.88 1.38645 1.48005 0
M  V30 5799 C 566.213 -0.0121202 1.94196 0
M  V30 5800 O 565.488 -0.980309 1.67989 0
M  V30 5801 C 565.771 2.37379 2.70782 0
M  V30 5802 C 565.624 3.8625 2.30501 0
M  V30 5803 C 566.943 2.33685 3.72933 0
M  V30 5804 H 564.062 0.504928 0.536858 0
M  V30 5805 H 566.704 1.71411 0.819649 0
M  V30 5806 H 564.854 2.09568 3.27129 0
M  V30 5807 H 566.526 4.24879 1.79655 0
M  V30 5808 H 564.769 4.02202 1.6253 0
M  V30 5809 H 565.44 4.50847 3.18498 0
M  V30 5810 H 567.916 2.58314 3.2621 0
M  V30 5811 H 566.792 3.0482 4.56482 0
M  V30 5812 H 567.053 1.34765 4.21059 0
M  V30 5813 N 566.112 -0.949982 1.2575 0
M  V30 5814 C 567.361 -1.68956 1.10168 0
M  V30 5815 C 567.674 -1.92327 -0.356309 0
M  V30 5816 O 568.88 -2.64026 -0.632657 0
M  V30 5817 C 567.336 -3.04196 1.92336 0
M  V30 5818 C 566.944 -2.88603 3.42655 0
M  V30 5819 C 568.688 -3.81904 1.85336 0
M  V30 5820 C 566.595 -4.19262 4.17101 0
M  V30 5821 H 565.525 -0.633645 0.408668 0
M  V30 5822 H 568.176 -1.05719 1.49986 0
M  V30 5823 H 566.558 -3.68363 1.45344 0
M  V30 5824 H 567.732 -2.3334 3.97353 0
M  V30 5825 H 566.047 -2.24345 3.50796 0
M  V30 5826 H 568.644 -4.78688 2.38248 0
M  V30 5827 H 568.987 -4.08099 0.822226 0
M  V30 5828 H 569.52 -3.24495 2.30104 0
M  V30 5829 H 566.259 -3.98254 5.20648 0
M  V30 5830 H 565.779 -4.74273 3.67186 0
M  V30 5831 H 567.458 -4.87775 4.25071 0
M  V30 5832 N 567.59 -1.07411 -1.15328 0
M  V30 5833 C 568.83 -0.807011 -1.87794 0
M  V30 5834 C 569.194 0.654987 -1.80482 0
M  V30 5835 O 570.395 1.03716 -2.47985 0
M  V30 5836 C 568.666 -1.30198 -3.32841 0
M  V30 5837 S 570.225 -1.16564 -4.23034 0
M  V30 5838 H 567.043 -0.292429 -0.648079 0
M  V30 5839 H 569.645 -1.37334 -1.39139 0
M  V30 5840 H 568.349 -2.3607 -3.35707 0
M  V30 5841 H 567.88 -0.730881 -3.86551 0
M  V30 5842 H 569.895 -0.103557 -4.96092 0
M  V30 5843 N 569.068 1.32177 -0.85831 0
M  V30 5844 C 570.293 2.01847 -0.476718 0
M  V30 5845 C 570.718 1.64065 0.920021 0
M  V30 5846 O 570.076 0.843189 1.60499 0
M  V30 5847 C 570.124 3.55097 -0.627578 0
M  V30 5848 O 569.228 4.11012 0.338086 0
M  V30 5849 H 568.569 0.635907 -0.191099 0
M  V30 5850 H 571.099 1.68641 -1.15851 0
M  V30 5851 H 571.109 4.04718 -0.516476 0
M  V30 5852 H 569.784 3.81938 -1.64609 0
M  V30 5853 H 568.361 3.72451 0.182917 0
M  V30 5854 N 570.547 0.616602 1.45037 0
M  V30 5855 C 571.824 0.0469086 1.95544 0
M  V30 5856 C 572.204 -1.42345 1.55888 0
M  V30 5857 O 571.552 -2.13055 0.825824 0
M  V30 5858 C 571.762 0.254489 3.48071 0
M  V30 5859 C 573.11 0.140025 4.24369 0
M  V30 5860 O 574.134 0.185084 3.55719 0
M  V30 5861 O 572.993 0.0327034 5.4649 0
M  V30 5862 H 570.087 -0.0306051 0.826433 0
M  V30 5863 H 572.633 0.687293 1.55159 0
M  V30 5864 H 571.405 1.27532 3.69934 0
M  V30 5865 H 571.028 -0.42073 3.95368 0
M  V30 5866 N 572.025 -1.5352 0.356285 0
M  V30 5867 C 572.972 -2.25439 -0.494569 0
M  V30 5868 C 573.942 -1.25752 -1.08516 0
M  V30 5869 O 575.127 -1.54513 -1.1194 0
M  V30 5870 C 572.267 -3.04011 -1.63313 0
M  V30 5871 C 571.38 -4.18574 -1.06862 0
M  V30 5872 C 570.515 -4.84607 -2.17552 0
M  V30 5873 C 569.554 -5.91218 -1.58518 0
M  V30 5874 N 568.691 -6.50979 -2.63003 0
M  V30 5875 H 573.531 -2.97737 0.125244 0
M  V30 5876 H 571.068 -1.46916 0.0735789 0
M  V30 5877 H 573.026 -3.47834 -2.30363 0
M  V30 5878 H 571.656 -2.33986 -2.22374 0
M  V30 5879 H 570.708 -3.79303 -0.288672 0
M  V30 5880 H 572.02 -4.95215 -0.596924 0
M  V30 5881 H 571.174 -5.31566 -2.92442 0
M  V30 5882 H 569.913 -4.07418 -2.6807 0
M  V30 5883 H 568.918 -5.4363 -0.821391 0
M  V30 5884 H 570.143 -6.70322 -1.08836 0
M  V30 5885 H 568.089 -5.76648 -3.12751 0
M  V30 5886 H 568.006 -7.23131 -2.20493 0
M  V30 5887 H 569.274 -7.02589 -3.37623 0
M  V30 5888 N 573.503 -0.0852151 -1.57369 0
M  V30 5889 C 574.731 0.58946 -1.98325 0
M  V30 5890 C 575.146 1.62333 -0.96403 0
M  V30 5891 O 574.503 1.82438 0.0476395 0
M  V30 5892 C 574.554 1.24604 -3.39347 0
M  V30 5893 O 574.275 0.253532 -4.37366 0
M  V30 5894 C 575.776 2.00726 -3.95252 0
M  V30 5895 H 572.996 0.158783 -0.651942 0
M  V30 5896 H 575.54 -0.161584 -2.03861 0
M  V30 5897 H 573.695 1.94808 -3.34856 0
M  V30 5898 H 574.109 0.726207 -5.19448 0
M  V30 5899 H 575.583 2.42039 -4.96106 0
M  V30 5900 H 576.06 2.86919 -3.32527 0
M  V30 5901 H 576.666 1.3536 -4.03185 0
M  V30 5902 N 574.981 1.5647 0.188427 0
M  V30 5903 C 576.229 1.80655 0.905986 0
M  V30 5904 C 576.55 0.659391 1.83513 0
M  V30 5905 O 575.82 -0.321868 1.93238 0
M  V30 5906 H 574.4 0.666391 0.337538 0
M  V30 5907 H 577.062 1.93949 0.192339 0
M  V30 5908 H 576.158 2.74066 1.49313 0
M  V30 5909 N 576.459 -0.456382 1.50847 0
M  V30 5910 C 577.687 -1.23026 1.66349 0
M  V30 5911 C 578.102 -1.85473 0.352868 0
M  V30 5912 O 577.459 -1.69885 -0.666739 0
M  V30 5913 C 577.51 -2.32827 2.76539 0
M  V30 5914 O 577.231 -1.72938 4.02522 0
M  V30 5915 C 578.732 -3.23448 3.03144 0
M  V30 5916 H 575.952 -0.371527 0.558756 0
M  V30 5917 H 578.496 -0.543082 1.97157 0
M  V30 5918 H 576.651 -2.97294 2.48384 0
M  V30 5919 H 577.065 -2.45357 4.63573 0
M  V30 5920 H 578.539 -3.96669 3.83872 0
M  V30 5921 H 579.016 -3.83094 2.14793 0
M  V30 5922 H 579.622 -2.64702 3.32886 0
M  V30 5923 N 577.937 -1.40673 -0.710563 0
M  V30 5924 C 578.867 -1.44095 -1.83736 0
M  V30 5925 C 579.848 -0.301286 -1.67411 0
M  V30 5926 O 581.033 -0.510618 -1.87367 0
M  V30 5927 C 578.163 -1.30773 -3.21738 0
M  V30 5928 C 577.117 -2.42395 -3.52745 0
M  V30 5929 C 576.443 -2.14147 -4.89944 0
M  V30 5930 C 577.743 -3.84738 -3.53234 0
M  V30 5931 H 579.437 -2.38396 -1.81129 0
M  V30 5932 H 576.983 -1.14746 -0.870017 0
M  V30 5933 H 578.936 -1.31783 -4.00264 0
M  V30 5934 H 577.66 -0.329507 -3.24934 0
M  V30 5935 H 576.319 -2.40643 -2.76562 0
M  V30 5936 H 575.967 -1.14703 -4.89747 0
M  V30 5937 H 575.667 -2.88934 -5.11655 0
M  V30 5938 H 577.191 -2.16848 -5.70797 0
M  V30 5939 H 578.605 -3.88286 -4.2179 0
M  V30 5940 H 577.002 -4.59085 -3.86473 0
M  V30 5941 H 578.072 -4.13962 -2.52514 0
M  V30 5942 N 579.415 0.9433 -1.26252 0
M  V30 5943 C 580.643 1.72367 -1.14443 0
M  V30 5944 C 581.058 1.86392 0.300572 0
M  V30 5945 O 580.415 1.36978 1.20596 0
M  V30 5946 C 580.466 3.13155 -1.806 0
M  V30 5947 O 580.187 2.99803 -3.19452 0
M  V30 5948 C 581.688 4.07417 -1.74717 0
M  V30 5949 H 578.908 0.539758 -0.398626 0
M  V30 5950 H 581.452 1.18268 -1.66832 0
M  V30 5951 H 579.607 3.64162 -1.32154 0
M  V30 5952 H 580.021 3.88697 -3.52158 0
M  V30 5953 H 581.495 5.03773 -2.25647 0
M  V30 5954 H 581.972 4.3337 -0.713244 0
M  V30 5955 H 582.578 3.6233 -2.22704 0
M  V30 5956 N 580.893 1.08022 1.14757 0
M  V30 5957 C 581.825 0.664566 2.19354 0
M  V30 5958 C 582.838 -0.286374 1.60261 0
M  V30 5959 O 584.027 -0.0746362 1.78344 0
M  V30 5960 C 581.127 -0.0434634 3.38872 0
M  V30 5961 C 580.3 0.925381 4.27499 0
M  V30 5962 C 579.359 0.253398 5.2559 0
M  V30 5963 O 578.385 0.896581 5.62094 0
M  V30 5964 N 579.587 -0.998263 5.71852 0
M  V30 5965 H 582.352 1.56438 2.55631 0
M  V30 5966 H 579.913 0.965788 1.29939 0
M  V30 5967 H 581.905 -0.503857 4.01551 0
M  V30 5968 H 580.475 -0.845321 3.00954 0
M  V30 5969 H 579.695 1.56472 3.61815 0
M  V30 5970 H 580.983 1.58203 4.8358 0
M  V30 5971 H 580.381 -1.54063 5.44317 0
M  V30 5972 H 578.938 -1.40222 6.36538 0
M  V30 5973 N 582.371 -1.3172 0.865308 0
M  V30 5974 C 583.319 -2.30569 0.306674 0
M  V30 5975 C 584.313 -1.59317 -0.575724 0
M  V30 5976 O 585.519 -1.73961 -0.462343 0
M  V30 5977 H 581.894 -0.747681 0.0804834 0
M  V30 5978 H 583.865 -2.75165 1.15441 0
M  V30 5979 C 582.614 -3.44358 -0.480952 0
M  V30 5980 H 581.937 -3.99354 0.18876 0
M  V30 5981 H 583.377 -4.15652 -0.837241 0
M  V30 5982 C 581.836 -2.92574 -1.67039 0
M  V30 5983 O 582.366 -2.90954 -2.76964 0
M  V30 5984 N 580.572 -2.48835 -1.50097 0
M  V30 5985 H 580.119 -2.50353 -0.606738 0
M  V30 5986 H 580.077 -2.14543 -2.29823 0
M  V30 5987 N 583.85 -0.624285 -1.44708 0
M  V30 5988 C 585.266 -0.289322 -1.56956 0
M  V30 5989 C 585.466 1.20773 -1.61295 0
M  V30 5990 O 584.522 1.9915 -1.55227 0
M  V30 5991 C 585.835 -0.975215 -2.84447 0
M  V30 5992 C 587.383 -0.952709 -2.98148 0
M  V30 5993 C 587.858 -1.61893 -4.28433 0
M  V30 5994 N 589.349 -1.5852 -4.35231 0
M  V30 5995 C 590.084 -2.06969 -5.34744 0
M  V30 5996 N 589.58 -2.63579 -6.40701 0
M  V30 5997 N 591.373 -1.97638 -5.26209 0
M  V30 5998 H 583.524 -1.59612 -1.40135 0
M  V30 5999 H 585.787 -0.669592 -0.671081 0
M  V30 6000 H 585.493 -2.02999 -2.87201 0
M  V30 6001 H 585.367 -0.508749 -3.73753 0
M  V30 6002 H 587.754 0.093568 -2.94952 0
M  V30 6003 H 587.835 -1.4576 -2.10209 0
M  V30 6004 H 587.479 -2.66463 -4.32389 0
M  V30 6005 H 587.409 -1.08893 -5.15218 0
M  V30 6006 H 589.899 -1.17183 -3.59272 0
M  V30 6007 H 590.213 -2.98298 -7.12908 0
M  V30 6008 H 588.558 -2.67626 -6.41406 0
M  V30 6009 H 591.749 -1.5314 -4.42341 0
M  V30 6010 H 591.922 -2.35708 -6.03611 0
M  V30 6011 N 585.328 1.53329 -0.364422 0
M  V30 6012 C 586.261 2.22052 0.526145 0
M  V30 6013 C 587.239 1.21203 1.08391 0
M  V30 6014 O 588.423 1.50101 1.14026 0
M  V30 6015 C 585.55 2.91432 1.72583 0
M  V30 6016 C 584.596 4.06345 1.29562 0
M  V30 6017 S 585.429 5.34671 0.297885 0
M  V30 6018 C 586.585 6.07563 1.50392 0
M  V30 6019 H 586.818 2.97244 -0.0575055 0
M  V30 6020 H 584.351 1.53684 -0.148525 0
M  V30 6021 H 586.309 3.3202 2.41398 0
M  V30 6022 H 584.97 2.15966 2.28073 0
M  V30 6023 H 584.163 4.53901 2.19067 0
M  V30 6024 H 583.765 3.67642 0.686696 0
M  V30 6025 H 586.057 6.32224 2.43513 0
M  V30 6026 H 587 6.99973 1.06977 0
M  V30 6027 H 587.408 5.37994 1.70945 0
M  V30 6028 N 586.806 0.0935595 1.57322 0
M  V30 6029 C 588.034 -0.578934 1.98635 0
M  V30 6030 C 588.449 -1.61819 0.972626 0
M  V30 6031 O 587.806 -1.82461 -0.0379638 0
M  V30 6032 C 587.857 -1.22802 3.40003 0
M  V30 6033 O 587.578 -0.230334 4.37494 0
M  V30 6034 C 589.079 -1.98627 3.96311 0
M  V30 6035 H 586.299 -0.155324 0.652775 0
M  V30 6036 H 588.843 0.172393 2.03772 0
M  V30 6037 H 586.998 -1.93029 3.35885 0
M  V30 6038 H 587.412 -0.698649 5.19826 0
M  V30 6039 H 588.886 -2.39405 4.97382 0
M  V30 6040 H 589.363 -2.85151 3.34044 0
M  V30 6041 H 589.969 -1.3322 4.03897 0
M  V30 6042 N 588.284 -1.56567 -0.180126 0
M  V30 6043 C 589.53 -1.81761 -0.899497 0
M  V30 6044 C 589.863 -0.670015 -1.82276 0
M  V30 6045 O 589.138 0.328575 -1.91705 0
M  V30 6046 C 589.421 -3.17296 -1.7028 0
M  V30 6047 C 589.274 -4.4257 -0.803255 0
M  V30 6048 C 590.593 -3.49678 -2.67233 0
M  V30 6049 H 587.712 -0.661192 -0.325567 0
M  V30 6050 H 590.354 -1.89272 -0.16612 0
M  V30 6051 H 588.504 -3.11023 -2.32802 0
M  V30 6052 H 590.176 -4.60902 -0.191585 0
M  V30 6053 H 588.419 -4.33658 -0.110796 0
M  V30 6054 H 589.09 -5.33935 -1.40064 0
M  V30 6055 H 591.566 -3.56347 -2.14839 0
M  V30 6056 H 590.442 -4.45605 -3.20511 0
M  V30 6057 H 590.703 -2.73932 -3.47007 0
M  V30 6058 N 589.762 0.448376 -1.51087 0
M  V30 6059 C 590.987 1.22605 -1.6728 0
M  V30 6060 C 591.412 1.84524 -0.365045 0
M  V30 6061 O 590.77 1.6832 0.673642 0
M  V30 6062 C 590.818 2.29393 -2.78229 0
M  V30 6063 O 589.922 3.34608 -2.41063 0
M  V30 6064 H 589.263 0.359705 -0.558129 0
M  V30 6065 H 591.793 0.530903 -1.97592 0
M  V30 6066 H 591.803 2.74352 -3.01986 0
M  V30 6067 H 590.478 1.83701 -3.73131 0
M  V30 6068 H 589.055 2.95202 -2.27838 0
M  V30 6069 N 591.24 1.41047 0.703093 0
M  V30 6070 C 592.19 1.38774 1.80903 0
M  V30 6071 C 593.174 0.263275 1.58731 0
M  V30 6072 O 594.366 0.503362 1.69692 0
M  V30 6073 C 591.495 1.26497 3.19145 0
M  V30 6074 C 590.581 2.43775 3.47037 0
M  V30 6075 N 590.972 3.69249 3.45672 0
M  V30 6076 C 589.27 2.37425 3.77552 0
M  V30 6077 C 589.971 4.46989 3.72258 0
M  V30 6078 N 588.947 3.76998 3.91629 0
M  V30 6079 H 592.749 2.33714 1.78199 0
M  V30 6080 H 590.263 1.34996 0.902762 0
M  V30 6081 H 592.26 1.2295 3.98358 0
M  V30 6082 H 590.92 0.32534 3.23066 0
M  V30 6083 H 591.931 4.02239 3.26228 0
M  V30 6084 H 588.608 1.51895 3.88888 0
M  V30 6085 H 589.998 5.55894 3.77402 0
M  V30 6086 N 592.718 -0.936591 1.26751 0
M  V30 6087 C 593.648 -2.05315 1.11212 0
M  V30 6088 C 594.629 -1.70092 0.0160262 0
M  V30 6089 O 595.814 -1.93279 0.188894 0
M  V30 6090 C 592.944 -3.39123 0.749171 0
M  V30 6091 C 591.898 -3.88425 1.79751 0
M  V30 6092 C 591.224 -5.18936 1.28876 0
M  V30 6093 C 592.524 -4.12798 3.19992 0
M  V30 6094 H 594.218 -2.18573 2.04613 0
M  V30 6095 H 591.764 -1.05027 0.985159 0
M  V30 6096 H 593.717 -4.16704 0.627323 0
M  V30 6097 H 592.441 -3.25855 -0.220543 0
M  V30 6098 H 591.1 -3.13028 1.90811 0
M  V30 6099 H 590.748 -5.02051 0.308757 0
M  V30 6100 H 590.448 -5.52892 1.98958 0
M  V30 6101 H 591.972 -5.99096 1.17967 0
M  V30 6102 H 593.386 -4.80977 3.11983 0
M  V30 6103 H 591.783 -4.58044 3.87705 0
M  V30 6104 H 592.853 -3.18412 3.65707 0
M  V30 6105 N 594.196 -1.08629 -1.14182 0
M  V30 6106 C 595.442 -0.828415 -1.85766 0
M  V30 6107 C 595.797 0.638947 -1.81481 0
M  V30 6108 O 595.09 1.46386 -1.23619 0
M  V30 6109 C 595.284 -1.28734 -3.3341 0
M  V30 6110 C 595.113 -2.79778 -3.52071 0
M  V30 6111 C 593.883 -3.47554 -3.66789 0
M  V30 6112 C 596.081 -3.77945 -3.48801 0
M  V30 6113 N 594.063 -4.87107 -3.73631 0
M  V30 6114 C 595.434 -5.03406 -3.61914 0
M  V30 6115 C 597.489 -3.70917 -3.32152 0
M  V30 6116 C 596.192 -6.22673 -3.60098 0
M  V30 6117 C 598.218 -4.89662 -3.31641 0
M  V30 6118 C 597.58 -6.13962 -3.45296 0
M  V30 6119 H 593.679 -0.355884 -0.696327 0
M  V30 6120 H 596.263 -1.38508 -1.36834 0
M  V30 6121 H 594.434 -0.75822 -3.80927 0
M  V30 6122 H 596.166 -0.975649 -3.92764 0
M  V30 6123 H 592.921 -2.97972 -3.68116 0
M  V30 6124 H 593.345 -5.59775 -3.80763 0
M  V30 6125 H 597.987 -2.75749 -3.20504 0
M  V30 6126 H 595.705 -7.1815 -3.70522 0
M  V30 6127 H 599.291 -4.85914 -3.19968 0
M  V30 6128 H 598.171 -7.04307 -3.44851 0
M  V30 6129 N 595.674 1.31259 -0.872281 0
M  V30 6130 C 596.921 1.96622 -0.484365 0
M  V30 6131 C 597.249 1.68939 0.963841 0
M  V30 6132 O 596.504 0.97974 1.6941 0
M  V30 6133 C 596.803 3.50659 -0.690889 0
M  V30 6134 C 596.469 3.98366 -2.11224 0
M  V30 6135 C 595.131 4.11104 -2.50094 0
M  V30 6136 C 597.483 4.23425 -3.0391 0
M  V30 6137 C 594.811 4.46254 -3.80887 0
M  V30 6138 C 597.163 4.60039 -4.3422 0
M  V30 6139 C 595.827 4.70984 -4.73001 0
M  V30 6140 H 595.097 0.71949 -0.177242 0
M  V30 6141 H 597.744 1.56353 -1.10571 0
M  V30 6142 H 596.049 3.91798 0.0135782 0
M  V30 6143 H 597.746 3.99284 -0.370534 0
M  V30 6144 H 594.336 3.88949 -1.80047 0
M  V30 6145 H 598.52 4.13075 -2.75104 0
M  V30 6146 H 593.776 4.52926 -4.10692 0
M  V30 6147 H 597.95 4.78381 -5.06088 0
M  V30 6148 H 595.577 4.97977 -5.7439 0
M  V30 6149 N 597.152 0.631951 1.44375 0
M  V30 6150 C 598.429 0.067646 1.95483 0
M  V30 6151 C 598.809 -1.40683 1.57389 0
M  V30 6152 O 598.157 -2.12167 0.848375 0
M  V30 6153 C 598.367 0.291392 3.47781 0
M  V30 6154 C 599.715 0.185028 4.24197 0
M  V30 6155 O 600.739 0.222803 3.55503 0
M  V30 6156 O 599.598 0.0906642 5.46425 0
M  V30 6157 H 596.692 -0.0218379 0.826712 0
M  V30 6158 H 599.238 0.703711 1.54421 0
M  V30 6159 H 598.01 1.31449 3.68561 0
M  V30 6160 H 597.633 -0.378772 3.95792 0
M  V30 6161 N 598.631 -1.53133 0.372548 0
M  V30 6162 C 599.579 -2.27473 -0.485681 0
M  V30 6163 C 600.573 -1.30719 -1.07745 0
M  V30 6164 O 601.779 -1.48321 -1.01985 0
M  V30 6165 H 598.154 -0.731269 -0.175356 0
M  V30 6166 H 600.125 -2.97955 0.162986 0
M  V30 6167 C 598.874 -3.08191 -1.60978 0
M  V30 6168 H 598.197 -3.82488 -1.16373 0
M  V30 6169 H 599.637 -3.63373 -2.18485 0
M  V30 6170 C 598.096 -2.19461 -2.55614 0
M  V30 6171 O 598.626 -1.81008 -3.58607 0
M  V30 6172 N 596.832 -1.83955 -2.24965 0
M  V30 6173 H 596.379 -2.15423 -1.41247 0
M  V30 6174 H 596.337 -1.24874 -2.88538 0
M  V30 6175 N 600.109 -0.101901 -1.5727 0
M  V30 6176 C 601.059 0.865346 -2.1094 0
M  V30 6177 C 602.043 1.2394 -1.02605 0
M  V30 6178 O 603.235 1.21334 -1.28868 0
M  V30 6179 C 600.364 2.12187 -2.69874 0
M  V30 6180 C 599.45 1.77295 -3.85263 0
M  V30 6181 N 599.841 1.12993 -4.93017 0
M  V30 6182 C 598.139 2.06862 -3.95126 0
M  V30 6183 C 598.84 0.968631 -5.73579 0
M  V30 6184 N 597.816 1.48814 -5.22834 0
M  V30 6185 H 601.618 0.364368 -2.91633 0
M  V30 6186 H 599.132 0.101104 -1.62085 0
M  V30 6187 H 601.129 2.82431 -3.06657 0
M  V30 6188 H 599.789 2.62844 -1.90639 0
M  V30 6189 H 600.8 0.795935 -5.11747 0
M  V30 6190 H 597.477 2.59686 -3.26909 0
M  V30 6191 H 598.867 0.465231 -6.70287 0
M  V30 6192 N 601.587 1.56661 0.17182 0
M  V30 6193 C 602.836 1.81158 0.886831 0
M  V30 6194 C 603.149 0.679072 1.83434 0
M  V30 6195 O 604.355 0.808964 2.59168 0
M  V30 6196 C 602.811 3.20999 1.6275 0
M  V30 6197 C 602.419 4.42117 0.723652 0
M  V30 6198 C 604.163 3.5479 2.33076 0
M  V30 6199 C 602.07 5.7298 1.46452 0
M  V30 6200 H 601 0.675543 0.334899 0
M  V30 6201 H 603.651 1.82967 0.139765 0
M  V30 6202 H 602.033 3.13506 2.4193 0
M  V30 6203 H 603.207 4.60789 -0.0311485 0
M  V30 6204 H 601.522 4.16197 0.130063 0
M  V30 6205 H 604.119 4.49806 2.89099 0
M  V30 6206 H 604.462 2.79646 3.08389 0
M  V30 6207 H 604.995 3.63834 1.6084 0
M  V30 6208 H 601.734 6.51152 0.753729 0
M  V30 6209 H 601.254 5.58285 2.19266 0
M  V30 6210 H 602.933 6.14916 2.01214 0
M  V30 6211 N 603.065 -0.440357 1.51323 0
M  V30 6212 C 604.015 -1.53263 1.68803 0
M  V30 6213 C 604.999 -1.51494 0.542057 0
M  V30 6214 O 606.191 -1.57999 0.797839 0
M  V30 6215 C 603.32 -2.91479 1.8137 0
M  V30 6216 C 602.406 -2.98015 3.01742 0
M  V30 6217 N 602.797 -2.743 4.24962 0
M  V30 6218 C 601.095 -3.29173 3.00934 0
M  V30 6219 C 601.796 -2.86601 5.06197 0
M  V30 6220 N 600.772 -3.1814 4.40781 0
M  V30 6221 H 604.574 -1.33675 2.61741 0
M  V30 6222 H 602.088 -0.647616 1.48929 0
M  V30 6223 H 604.085 -3.70055 1.92002 0
M  V30 6224 H 602.745 -3.12089 0.896117 0
M  V30 6225 H 603.756 -2.49287 4.53957 0
M  V30 6226 H 600.433 -3.55577 2.18796 0
M  V30 6227 H 601.823 -2.72246 6.14274 0
M  V30 6228 N 604.543 -1.41418 -0.695603 0
M  V30 6229 C 605.771 -1.4413 -1.48439 0
M  V30 6230 C 606.186 -0.0465698 -1.88743 0
M  V30 6231 O 605.543 0.934117 -1.56782 0
M  V30 6232 C 605.594 -2.34998 -2.74696 0
M  V30 6233 O 605.315 -3.69043 -2.36091 0
M  V30 6234 C 606.816 -2.46513 -3.68438 0
M  V30 6235 H 604.036 -0.490905 -0.457442 0
M  V30 6236 H 606.58 -1.85702 -0.856454 0
M  V30 6237 H 604.735 -1.96735 -3.33728 0
M  V30 6238 H 605.149 -4.17505 -3.17474 0
M  V30 6239 H 606.623 -3.1426 -4.53811 0
M  V30 6240 H 607.1 -1.49638 -4.12922 0
M  V30 6241 H 607.706 -2.85412 -3.1531 0
M  V30 6242 N 606.021 0.929856 -1.27246 0
M  V30 6243 C 606.984 2.01172 -1.09829 0
M  V30 6244 C 607.984 1.60743 -0.0429687 0
M  V30 6245 O 609.174 1.71813 -0.287373 0
M  V30 6246 C 606.306 3.34191 -0.673003 0
M  V30 6247 H 607.499 2.18054 -2.05895 0
M  V30 6248 H 605.052 1.11036 -1.10003 0
M  V30 6249 H 605.787 3.23009 0.289134 0
M  V30 6250 H 605.572 3.64892 -1.43515 0
M  V30 6251 H 607.062 4.13646 -0.573323 0
M  V30 6252 N 607.499 1.09233 1.13605 0
M  V30 6253 C 608.776 0.739633 1.81077 0
M  V30 6254 C 609.156 -0.775595 1.96336 0
M  V30 6255 O 608.504 -1.69726 1.52988 0
M  V30 6256 C 608.714 1.47636 3.16235 0
M  V30 6257 C 610.062 1.64087 3.91613 0
M  V30 6258 O 611.086 1.43871 3.25852 0
M  V30 6259 O 609.945 1.97511 5.0956 0
M  V30 6260 H 607.039 0.265464 0.783236 0
M  V30 6261 H 609.585 1.19441 1.20549 0
M  V30 6262 H 608.357 2.50818 3.00344 0
M  V30 6263 H 607.98 1.01362 3.84462 0
M  V30 6264 N 608.977 -1.30795 0.87923 0
M  V30 6265 C 610.205 -2.00527 0.509548 0
M  V30 6266 C 610.62 -1.65944 -0.90045 0
M  V30 6267 O 609.977 -0.893525 -1.5913 0
M  V30 6268 C 610.028 -3.55276 0.667943 0
M  V30 6269 O 609.749 -3.88625 2.02242 0
M  V30 6270 C 611.25 -4.4228 0.300494 0
M  V30 6271 H 608.47 -0.641261 0.197549 0
M  V30 6272 H 611.014 -1.66813 1.18295 0
M  V30 6273 H 609.169 -3.87377 0.0419843 0
M  V30 6274 H 609.583 -4.83334 2.03688 0
M  V30 6275 H 611.057 -5.50061 0.462242 0
M  V30 6276 H 611.534 -4.32556 -0.76106 0
M  V30 6277 H 612.14 -4.15613 0.902536 0
M  V30 6278 N 610.455 -0.639598 -1.44038 0
M  V30 6279 C 611.683 -0.154811 -2.0632 0
M  V30 6280 C 612.098 1.17406 -1.47856 0
M  V30 6281 O 611.455 1.72193 -0.604638 0
M  V30 6282 C 611.506 -0.0429958 -3.61474 0
M  V30 6283 O 611.227 -1.31932 -4.17763 0
M  V30 6284 C 612.728 0.469486 -4.40807 0
M  V30 6285 H 609.948 -0.0835862 -0.665773 0
M  V30 6286 H 612.492 -0.876397 -1.84769 0
M  V30 6287 H 610.647 0.629075 -3.82258 0
M  V30 6288 H 611.061 -1.16965 -5.11292 0
M  V30 6289 H 612.535 0.496712 -5.49761 0
M  V30 6290 H 613.012 1.49819 -4.12857 0
M  V30 6291 H 613.618 -0.169624 -4.24962 0
M  V30 6292 N 611.933 1.52934 -0.380664 0
M  V30 6293 C 612.843 2.29921 0.466192 0
M  V30 6294 C 613.859 1.36488 1.07922 0
M  V30 6295 O 615.035 1.69553 1.0869 0
M  V30 6296 C 612.1 3.08468 1.58266 0
M  V30 6297 C 611.161 4.17595 0.995627 0
M  V30 6298 C 610.394 4.92387 2.05889 0
M  V30 6299 O 610.617 4.67184 3.27254 0
M  V30 6300 O 609.551 5.77949 1.68102 0
M  V30 6301 H 613.377 3.03274 -0.160735 0
M  V30 6302 H 610.962 1.48698 -0.144617 0
M  V30 6303 H 612.844 3.57469 2.23145 0
M  V30 6304 H 611.519 2.37937 2.19471 0
M  V30 6305 H 610.426 3.72811 0.310332 0
M  V30 6306 H 611.759 4.90336 0.427918 0
M  V30 6307 N 613.412 0.11024 1.57214 0
M  V30 6308 C 614.689 -0.592956 1.86396 0
M  V30 6309 C 615.069 -1.85379 1.00985 0
M  V30 6310 O 614.417 -2.28337 0.0863592 0
M  V30 6311 C 614.627 -0.893816 3.3736 0
M  V30 6312 C 615.975 -1.25069 4.05762 0
M  V30 6313 O 616.999 -0.984356 3.42329 0
M  V30 6314 O 615.858 -1.75017 5.17718 0
M  V30 6315 H 612.952 -0.29828 0.771335 0
M  V30 6316 H 615.498 0.144083 1.69087 0
M  V30 6317 H 614.27 2.6031e-05 3.913 0
M  V30 6318 H 613.893 -1.68631 3.60068 0
M  V30 6319 N 614.89 -1.56749 -0.16351 0
M  V30 6320 C 615.822 -1.93587 -1.22705 0
M  V30 6321 C 616.835 -0.829824 -1.40063 0
M  V30 6322 O 618.024 -1.10826 -1.39928 0
M  V30 6323 C 615.124 -2.1803 -2.59454 0
M  V30 6324 C 614.297 -3.4928 -2.63292 0
M  V30 6325 C 613.356 -3.62457 -3.8146 0
M  V30 6326 O 612.382 -4.35004 -3.67096 0
M  V30 6327 N 613.584 -2.97888 -4.9824 0
M  V30 6328 H 616.349 -2.8542 -0.914081 0
M  V30 6329 H 613.91 -1.58 -0.353214 0
M  V30 6330 H 615.902 -2.24102 -3.36987 0
M  V30 6331 H 614.472 -1.32543 -2.8311 0
M  V30 6332 H 613.692 -3.54795 -1.71796 0
M  V30 6333 H 614.98 -4.35632 -2.62873 0
M  V30 6334 H 614.378 -2.38833 -5.12811 0
M  V30 6335 H 612.935 -3.09545 -5.73607 0
M  V30 6336 N 616.368 0.432326 -1.51554 0
M  V30 6337 C 617.593 1.20824 -1.68571 0
M  V30 6338 C 618.018 1.84126 -0.384596 0
M  V30 6339 O 617.376 1.69025 0.655751 0
M  V30 6340 C 617.424 2.26429 -2.80646 0
M  V30 6341 O 616.528 3.32032 -2.44598 0
M  V30 6342 H 615.869 0.353765 -0.561913 0
M  V30 6343 H 618.399 0.509916 -1.98144 0
M  V30 6344 H 618.409 2.71133 -3.04878 0
M  V30 6345 H 617.084 1.79733 -3.75058 0
M  V30 6346 H 615.661 2.92769 -2.30956 0
M  V30 6347 N 617.846 1.41785 0.688094 0
M  V30 6348 C 619.094 1.41264 1.4453 0
M  V30 6349 C 619.415 0.0252946 1.94984 0
M  V30 6350 O 618.685 -0.934081 1.72197 0
M  V30 6351 H 617.265 0.519998 0.536294 0
M  V30 6352 H 619.927 1.7709 0.813941 0
M  V30 6353 H 619.023 2.10439 2.30482 0
M  V30 6354 N 619.324 -0.923095 1.27737 0
M  V30 6355 C 620.256 -2.02871 1.06658 0
M  V30 6356 C 621.269 -1.62786 0.0212095 0
M  V30 6357 O 622.458 -1.76548 0.263267 0
M  V30 6358 C 619.558 -3.33603 0.59682 0
M  V30 6359 C 618.731 -4.02354 1.71551 0
M  V30 6360 C 617.79 -5.11364 1.24071 0
M  V30 6361 O 616.816 -5.35075 1.94123 0
M  V30 6362 N 618.018 -5.80416 0.0988444 0
M  V30 6363 H 620.783 -2.21515 2.01869 0
M  V30 6364 H 618.344 -1.09378 1.19365 0
M  V30 6365 H 620.336 -4.03845 0.262984 0
M  V30 6366 H 618.906 -3.11499 -0.262187 0
M  V30 6367 H 618.126 -3.25786 2.2194 0
M  V30 6368 H 619.414 -4.45035 2.46619 0
M  V30 6369 H 618.812 -5.63611 -0.485743 0
M  V30 6370 H 617.369 -6.51563 -0.17578 0
M  V30 6371 N 620.802 -1.09834 -1.13024 0
M  V30 6372 C 622.03 -0.858902 -1.8823 0
M  V30 6373 C 622.445 0.590164 -1.79339 0
M  V30 6374 O 621.802 1.4065 -1.16292 0
M  V30 6375 C 621.853 -1.29066 -3.37675 0
M  V30 6376 O 621.574 -2.6829 -3.46341 0
M  V30 6377 C 623.075 -1.08421 -4.29837 0
M  V30 6378 H 620.295 -0.308713 -0.595766 0
M  V30 6379 H 622.839 -1.4614 -1.4305 0
M  V30 6380 H 620.994 -0.731961 -3.80422 0
M  V30 6381 H 621.408 -2.86598 -4.39274 0
M  V30 6382 H 622.882 -1.43553 -5.33007 0
M  V30 6383 H 623.359 -0.0223315 -4.39194 0
M  V30 6384 H 623.965 -1.62907 -3.92863 0
M  V30 6385 N 622.28 1.30327 -0.886154 0
M  V30 6386 C 623.527 1.96097 -0.505192 0
M  V30 6387 C 623.855 1.69952 0.945868 0
M  V30 6388 O 623.11 0.997653 1.68361 0
M  V30 6389 C 623.409 3.49906 -0.728042 0
M  V30 6390 C 623.075 3.96103 -2.15437 0
M  V30 6391 C 621.737 4.08428 -2.5444 0
M  V30 6392 C 624.089 4.20177 -3.08384 0
M  V30 6393 C 621.417 4.42189 -3.85598 0
M  V30 6394 C 623.769 4.55407 -4.39075 0
M  V30 6395 C 622.433 4.65941 -4.7797 0
M  V30 6396 H 621.703 0.71757 -0.184863 0
M  V30 6397 H 624.35 1.55171 -1.12223 0
M  V30 6398 H 622.655 3.9179 -0.027978 0
M  V30 6399 H 624.352 3.98869 -0.412862 0
M  V30 6400 H 620.942 3.87017 -1.84162 0
M  V30 6401 H 625.126 4.10134 -2.7947 0
M  V30 6402 H 620.382 4.48544 -4.15473 0
M  V30 6403 H 624.556 4.72986 -5.11133 0
M  V30 6404 H 622.183 4.91856 -5.79639 0
M  V30 6405 N 623.758 0.647228 1.43697 0
M  V30 6406 C 625.035 0.0883758 1.954 0
M  V30 6407 C 625.415 -1.39006 1.58873 0
M  V30 6408 O 624.763 -2.11255 0.87083 0
M  V30 6409 C 624.973 0.328263 3.47453 0
M  V30 6410 C 626.321 0.230009 4.23977 0
M  V30 6411 O 627.345 0.260496 3.55246 0
M  V30 6412 O 626.204 0.148615 5.46298 0
M  V30 6413 H 623.298 -0.0130683 0.826897 0
M  V30 6414 H 625.844 0.72005 1.53666 0
M  V30 6415 H 624.616 1.3535 3.67146 0
M  V30 6416 H 624.239 -0.336772 3.96171 0
M  V30 6417 N 625.236 -1.5273 0.388769 0
M  V30 6418 C 626.168 -2.24081 -0.481704 0
M  V30 6419 C 627.181 -1.26307 -1.02715 0
M  V30 6420 O 628.37 -1.52386 -0.929565 0
M  V30 6421 C 625.47 -2.94315 -1.68024 0
M  V30 6422 C 624.643 -4.18791 -1.26226 0
M  V30 6423 C 623.702 -4.72028 -2.32542 0
M  V30 6424 O 622.728 -5.35129 -1.93972 0
M  V30 6425 N 623.93 -4.51838 -3.64448 0
M  V30 6426 H 626.695 -2.9942 0.129591 0
M  V30 6427 H 624.256 -1.60465 0.2151 0
M  V30 6428 H 626.248 -3.26831 -2.38671 0
M  V30 6429 H 624.818 -2.22287 -2.19789 0
M  V30 6430 H 624.038 -3.92318 -0.384703 0
M  V30 6431 H 625.326 -4.99668 -0.959647 0
M  V30 6432 H 624.724 -4.01468 -3.98547 0
M  V30 6433 H 623.281 -4.88845 -4.31131 0
M  V30 6434 N 626.714 -0.118576 -1.57153 0
M  V30 6435 C 627.939 0.550582 -1.99958 0
M  V30 6436 C 628.364 1.59458 -0.997736 0
M  V30 6437 O 627.722 1.81274 0.0306269 0
M  V30 6438 C 627.77 1.15379 -3.41643 0
M  V30 6439 O 626.874 2.26932 -3.44348 0
M  V30 6440 H 626.215 0.137567 -0.649593 0
M  V30 6441 H 628.745 -0.206926 -2.03551 0
M  V30 6442 H 628.755 1.48942 -3.79843 0
M  V30 6443 H 627.43 0.389087 -4.14076 0
M  V30 6444 H 626.007 1.94812 -3.17967 0
M  V30 6445 N 628.193 1.56834 0.155195 0
M  V30 6446 C 629.418 1.87412 0.888337 0
M  V30 6447 C 629.843 0.70671 1.74319 0
M  V30 6448 O 629.201 -0.343892 1.78009 0
M  V30 6449 C 629.249 3.1652 1.72765 0
M  V30 6450 O 628.353 2.99877 2.83103 0
M  V30 6451 H 627.694 0.615983 0.247914 0
M  V30 6452 H 630.224 2.04061 0.148478 0
M  V30 6453 H 630.234 3.48334 2.12433 0
M  V30 6454 H 628.909 4.01094 1.09985 0
M  V30 6455 H 627.486 2.79453 2.46902 0
M  V30 6456 N 629.671 -0.424282 1.51781 0
M  V30 6457 C 630.581 -1.54087 1.76902 0
M  V30 6458 C 631.597 -1.61249 0.653826 0
M  V30 6459 O 632.773 -1.78247 0.937552 0
M  V30 6460 C 629.838 -2.8996 1.90063 0
M  V30 6461 C 628.899 -2.92809 3.13945 0
M  V30 6462 C 628.132 -4.22201 3.26469 0
M  V30 6463 O 628.355 -5.15286 2.44616 0
M  V30 6464 O 627.289 -4.31599 4.1953 0
M  V30 6465 H 631.115 -1.358 2.71647 0
M  V30 6466 H 628.7 -0.608618 1.36441 0
M  V30 6467 H 630.582 -3.70575 2.0063 0
M  V30 6468 H 629.257 -3.08347 0.985067 0
M  V30 6469 H 628.164 -2.11102 3.08847 0
M  V30 6470 H 629.497 -2.79369 4.05233 0
M  V30 6471 N 631.149 -1.42148 -0.680565 0
M  V30 6472 C 632.377 -1.45696 -1.46902 0
M  V30 6473 C 632.792 -0.0665858 -1.88683 0
M  V30 6474 O 632.149 0.917436 -1.57764 0
M  V30 6475 C 632.2 -2.37898 -2.72188 0
M  V30 6476 O 631.921 -3.71526 -2.32163 0
M  V30 6477 C 633.422 -2.50407 -3.65802 0
M  V30 6478 H 630.642 -0.495729 -0.45221 0
M  V30 6479 H 633.186 -1.866 -0.836709 0
M  V30 6480 H 631.341 -2.00263 -3.31622 0
M  V30 6481 H 631.755 -4.20849 -3.13027 0
M  V30 6482 H 633.229 -3.19056 -4.50452 0
M  V30 6483 H 633.706 -1.5401 -4.11312 0
M  V30 6484 H 634.312 -2.8874 -3.12265 0
M  V30 6485 N 632.627 0.916307 -1.28225 0
M  V30 6486 C 633.873 1.66794 -1.1641 0
M  V30 6487 C 634.228 1.90278 0.284986 0
M  V30 6488 O 633.521 1.49023 1.20427 0
M  V30 6489 C 633.715 3.03125 -1.8934 0
M  V30 6490 C 633.544 2.92947 -3.41192 0
M  V30 6491 C 632.314 2.9461 -4.10528 0
M  V30 6492 C 634.512 2.7121 -4.36978 0
M  V30 6493 N 632.494 2.74993 -5.48864 0
M  V30 6494 C 633.865 2.60411 -5.6266 0
M  V30 6495 C 635.92 2.56187 -4.26934 0
M  V30 6496 C 634.623 2.3612 -6.79441 0
M  V30 6497 C 636.649 2.33275 -5.43449 0
M  V30 6498 C 636.011 2.23228 -6.68093 0
M  V30 6499 H 632.11 0.616654 -0.480896 0
M  V30 6500 H 634.694 1.08237 -1.61842 0
M  V30 6501 H 632.865 3.59774 -1.46346 0
M  V30 6502 H 634.597 3.67294 -1.69932 0
M  V30 6503 H 631.352 3.0527 -3.62087 0
M  V30 6504 H 631.776 2.68284 -6.21573 0
M  V30 6505 H 636.418 2.62707 -3.31278 0
M  V30 6506 H 634.136 2.28339 -7.75169 0
M  V30 6507 H 637.722 2.22519 -5.37565 0
M  V30 6508 H 636.602 2.05741 -7.5673 0
M  V30 6509 N 634.105 1.10431 1.1244 0
M  V30 6510 C 635.521 0.836096 1.35947 0
M  V30 6511 C 635.721 -0.544475 1.94004 0
M  V30 6512 O 634.777 -1.29735 2.16622 0
M  V30 6513 C 636.09 1.93575 2.30107 0
M  V30 6514 C 637.638 1.9642 2.43697 0
M  V30 6515 C 638.113 3.05559 3.41171 0
M  V30 6516 N 639.604 3.04865 3.48728 0
M  V30 6517 C 640.339 3.85954 4.24061 0
M  V30 6518 N 639.835 4.76977 5.02458 0
M  V30 6519 N 641.628 3.74172 4.19466 0
M  V30 6520 H 633.779 1.9942 0.731124 0
M  V30 6521 H 636.042 0.866607 0.384312 0
M  V30 6522 H 635.748 2.92943 1.94621 0
M  V30 6523 H 635.622 1.8229 3.30227 0
M  V30 6524 H 638.009 0.97685 2.78463 0
M  V30 6525 H 638.09 2.11782 1.43465 0
M  V30 6526 H 637.734 4.04513 3.07135 0
M  V30 6527 H 637.664 2.87438 4.41234 0
M  V30 6528 H 640.155 2.38908 2.92799 0
M  V30 6529 H 640.468 5.35409 5.57277 0
M  V30 6530 H 638.813 4.81006 5.01655 0
M  V30 6531 H 642.004 3.02412 3.57302 0
M  V30 6532 H 642.177 4.37602 4.77921 0
M  V30 6533 N 635.583 -1.29855 0.893053 0
M  V30 6534 C 636.546 -2.26183 0.370687 0
M  V30 6535 C 637.546 -1.53108 -0.491385 0
M  V30 6536 O 638.736 -1.71643 -0.297386 0
M  V30 6537 C 635.868 -3.37633 -0.470827 0
M  V30 6538 H 637.061 -2.73903 1.22135 0
M  V30 6539 H 634.614 -1.41183 0.67061 0
M  V30 6540 H 635.349 -2.95241 -1.34175 0
M  V30 6541 H 635.134 -3.91825 0.146784 0
M  V30 6542 H 636.624 -4.09313 -0.827825 0
M  V30 6543 N 637.061 -0.65484 -1.43351 0
M  V30 6544 C 637.991 0.0221809 -2.33489 0
M  V30 6545 C 638.972 0.810272 -1.49561 0
M  V30 6546 O 640.157 0.771426 -1.78221 0
M  V30 6547 C 637.287 0.988117 -3.32947 0
M  V30 6548 C 636.241 0.310026 -4.26876 0
M  V30 6549 C 635.567 1.38752 -5.16384 0
M  V30 6550 C 636.867 -0.798589 -5.16159 0
M  V30 6551 H 638.561 -0.730571 -2.9035 0
M  V30 6552 H 636.107 -0.352773 -1.39612 0
M  V30 6553 H 638.06 1.47067 -3.94904 0
M  V30 6554 H 636.784 1.77205 -2.74346 0
M  V30 6555 H 635.443 -0.152097 -3.66284 0
M  V30 6556 H 635.091 2.16293 -4.54121 0
M  V30 6557 H 634.791 0.939051 -5.80048 0
M  V30 6558 H 636.315 1.87141 -5.81215 0
M  V30 6559 H 637.729 -0.398126 -5.71916 0
M  V30 6560 H 636.126 -1.17163 -5.88552 0
M  V30 6561 H 637.196 -1.65588 -4.55751 0
M  V30 6562 N 638.539 1.52521 -0.396863 0
M  V30 6563 C 639.779 2.03583 0.182578 0
M  V30 6564 C 640.143 1.2766 1.43412 0
M  V30 6565 O 641.344 1.68884 2.09121 0
M  V30 6566 C 639.615 3.54724 0.436519 0
M  V30 6567 S 641.174 4.27598 0.985163 0
M  V30 6568 H 637.992 0.709186 0.0507529 0
M  V30 6569 H 640.594 1.87693 -0.546955 0
M  V30 6570 H 639.298 4.07567 -0.481343 0
M  V30 6571 H 638.829 3.74834 1.19427 0
M  V30 6572 H 640.844 4.41393 2.26686 0
M  V30 6573 N 640.017 0.126909 1.57088 0
M  V30 6574 C 641.433 -0.229641 1.57939 0
M  V30 6575 C 641.633 -1.66145 1.1401 0
M  V30 6576 O 640.689 -2.3843 0.831119 0
M  V30 6577 C 642.002 0.0108648 3.00698 0
M  V30 6578 C 643.55 -0.054418 3.12953 0
M  V30 6579 C 644.025 0.158497 4.57726 0
M  V30 6580 N 645.516 0.104735 4.63082 0
M  V30 6581 C 646.251 0.24427 5.72879 0
M  V30 6582 N 645.747 0.440415 6.91399 0
M  V30 6583 N 647.54 0.183286 5.61801 0
M  V30 6584 H 639.691 1.06203 1.83942 0
M  V30 6585 H 641.954 0.418834 0.85046 0
M  V30 6586 H 641.66 1.00102 3.37154 0
M  V30 6587 H 641.534 -0.717512 3.70313 0
M  V30 6588 H 643.921 -1.0351 2.7635 0
M  V30 6589 H 644.002 0.705967 2.45865 0
M  V30 6590 H 643.646 1.13619 4.95028 0
M  V30 6591 H 643.576 -0.62197 5.22914 0
M  V30 6592 H 646.067 -0.0430298 3.77876 0
M  V30 6593 H 646.38 0.537536 7.70928 0
M  V30 6594 H 644.725 0.476488 6.93365 0
M  V30 6595 H 647.916 0.0309561 4.6809 0
M  V30 6596 H 648.089 0.295471 6.47326 0
M  V30 6597 N 641.495 -1.56914 -0.146875 0
M  V30 6598 C 642.741 -1.83628 -0.860741 0
M  V30 6599 C 643.074 -0.708528 -1.80813 0
M  V30 6600 O 642.349 0.287838 -1.92358 0
M  V30 6601 C 642.632 -3.20836 -1.63511 0
M  V30 6602 C 642.485 -4.44174 -0.709199 0
M  V30 6603 C 643.804 -3.55268 -2.59756 0
M  V30 6604 H 640.923 -0.667949 -0.311468 0
M  V30 6605 H 643.565 -1.89582 -0.125936 0
M  V30 6606 H 641.715 -3.15891 -2.26153 0
M  V30 6607 H 643.387 -4.61205 -0.0937781 0
M  V30 6608 H 641.63 -4.33796 -0.0187856 0
M  V30 6609 H 642.301 -5.36785 -1.28707 0
M  V30 6610 H 644.777 -3.60824 -2.07232 0
M  V30 6611 H 643.653 -4.52303 -3.10987 0
M  V30 6612 H 643.914 -2.81231 -3.41118 0
M  V30 6613 N 642.974 0.416227 -1.52004 0
M  V30 6614 C 643.904 1.51365 -1.77795 0
M  V30 6615 C 644.885 1.58059 -0.628601 0
M  V30 6616 O 646.07 1.73447 -0.873478 0
M  V30 6617 C 643.2 2.89256 -1.92219 0
M  V30 6618 C 642.154 2.97415 -3.0778 0
M  V30 6619 C 641.48 4.37492 -3.07417 0
M  V30 6620 C 642.78 2.69551 -4.47369 0
M  V30 6621 H 644.474 1.30033 -2.69688 0
M  V30 6622 H 642.02 0.624112 -1.29772 0
M  V30 6623 H 643.973 3.66008 -2.08845 0
M  V30 6624 H 642.697 3.11866 -0.969917 0
M  V30 6625 H 641.356 2.23107 -2.90893 0
M  V30 6626 H 641.004 4.571 -2.09925 0
M  V30 6627 H 640.704 4.43877 -3.85029 0
M  V30 6628 H 642.228 5.16188 -3.26162 0
M  V30 6629 H 643.642 3.36028 -4.64497 0
M  V30 6630 H 642.039 2.87321 -5.26846 0
M  V30 6631 H 643.109 1.65029 -4.55953 0
M  V30 6632 N 644.452 1.42507 0.673017 0
M  V30 6633 C 645.68 1.46473 1.46128 0
M  V30 6634 C 646.095 0.0765912 1.88645 0
M  V30 6635 O 645.452 -0.909057 1.58248 0
M  V30 6636 C 645.503 2.39339 2.70923 0
M  V30 6637 O 645.224 3.72752 2.3019 0
M  V30 6638 C 646.725 2.52343 3.64469 0
M  V30 6639 H 643.945 0.49812 0.449575 0
M  V30 6640 H 646.489 1.87041 0.826802 0
M  V30 6641 H 644.644 2.02019 3.30556 0
M  V30 6642 H 645.058 4.22503 3.10791 0
M  V30 6643 H 646.532 3.2144 4.48754 0
M  V30 6644 H 647.009 1.56189 4.1049 0
M  V30 6645 H 647.615 2.90392 3.10729 0
M  V30 6646 N 645.93 -0.909495 1.28709 0
M  V30 6647 C 646.86 -2.0291 1.15542 0
M  V30 6648 C 647.841 -1.7002 0.0521017 0
M  V30 6649 O 649.026 -1.92835 0.229849 0
M  V30 6650 C 646.156 -3.37458 0.820935 0
M  V30 6651 C 645.11 -3.84524 1.87949 0
M  V30 6652 C 644.436 -5.16086 1.39854 0
M  V30 6653 C 645.736 -4.05918 3.28676 0
M  V30 6654 H 647.43 -2.14183 2.09203 0
M  V30 6655 H 644.976 -1.02913 1.00722 0
M  V30 6656 H 646.929 -4.1528 0.715571 0
M  V30 6657 H 645.653 -3.26249 -0.151374 0
M  V30 6658 H 644.312 -3.08911 1.97408 0
M  V30 6659 H 643.96 -5.01284 0.41518 0
M  V30 6660 H 643.66 -5.48547 2.1064 0
M  V30 6661 H 645.184 -5.96459 1.30649 0
M  V30 6662 H 646.598 -4.74252 3.22115 0
M  V30 6663 H 644.995 -4.49717 3.97334 0
M  V30 6664 H 646.065 -3.10583 3.72379 0
M  V30 6665 N 647.408 -1.11026 -1.11852 0
M  V30 6666 C 648.648 -0.866348 -1.85132 0
M  V30 6667 C 649.012 0.597236 -1.82475 0
M  V30 6668 O 650.213 0.957744 -2.51159 0
M  V30 6669 C 648.484 -1.40721 -3.28531 0
M  V30 6670 S 650.043 -1.29964 -4.19112 0
M  V30 6671 H 646.861 -0.312899 -0.638447 0
M  V30 6672 H 649.463 -1.41691 -1.34699 0
M  V30 6673 H 648.167 -2.46631 -3.28027 0
M  V30 6674 H 647.698 -0.85349 -3.8403 0
M  V30 6675 H 649.713 -0.261333 -4.95511 0
M  V30 6676 N 648.886 1.2938 -0.899927 0
M  V30 6677 C 649.834 2.29675 -0.367698 0
M  V30 6678 C 650.828 1.60787 0.533282 0
M  V30 6679 O 652.034 1.75126 0.416058 0
M  V30 6680 H 648.409 0.745284 -0.100279 0
M  V30 6681 H 650.38 2.72008 -1.22696 0
M  V30 6682 C 649.129 3.45512 0.389483 0
M  V30 6683 H 648.452 3.98713 -0.294575 0
M  V30 6684 H 649.892 4.17725 0.726744 0
M  V30 6685 C 648.351 2.969 1.59223 0
M  V30 6686 O 648.881 2.98195 2.69152 0
M  V30 6687 N 647.087 2.52728 1.43447 0
M  V30 6688 H 646.634 2.51873 0.540148 0
M  V30 6689 H 646.592 2.20561 2.24054 0
M  V30 6690 N 650.364 0.662433 1.43002 0
M  V30 6691 C 651.78 0.330835 1.56133 0
M  V30 6692 C 651.98 -1.16454 1.64441 0
M  V30 6693 O 651.036 -1.94964 1.60453 0
M  V30 6694 C 652.349 1.05029 2.81761 0
M  V30 6695 C 653.897 1.03142 2.95518 0
M  V30 6696 C 654.372 1.73196 4.2399 0
M  V30 6697 N 655.863 1.70004 4.30875 0
M  V30 6698 C 656.598 2.21074 5.29069 0
M  V30 6699 N 656.094 2.80473 6.33488 0
M  V30 6700 N 657.887 2.1152 5.20784 0
M  V30 6701 H 650.038 1.63272 1.35853 0
M  V30 6702 H 652.301 0.687149 0.653092 0
M  V30 6703 H 652.007 2.10542 2.81718 0
M  V30 6704 H 651.881 0.607664 3.72273 0
M  V30 6705 H 654.268 -0.0153339 2.95096 0
M  V30 6706 H 654.349 1.51282 2.0627 0
M  V30 6707 H 653.993 2.77833 4.25172 0
M  V30 6708 H 653.923 1.22515 5.1215 0
M  V30 6709 H 656.414 1.26667 3.56039 0
M  V30 6710 H 656.727 3.17094 7.04749 0
M  V30 6711 H 655.072 2.84538 6.34085 0
M  V30 6712 H 658.263 1.64814 4.38126 0
M  V30 6713 H 658.436 2.51629 5.97149 0
M  V30 6714 N 651.842 -1.52309 0.404946 0
M  V30 6715 C 652.805 -2.25491 -0.410651 0
M  V30 6716 C 653.805 -1.27704 -0.977154 0
M  V30 6717 O 654.995 -1.51679 -0.856691 0
M  V30 6718 C 652.127 -3.02197 -1.57765 0
M  V30 6719 H 653.32 -2.99015 0.230277 0
M  V30 6720 H 650.873 -1.55506 0.157377 0
M  V30 6721 H 651.608 -2.33013 -2.25556 0
M  V30 6722 H 651.393 -3.73987 -1.17797 0
M  V30 6723 H 652.883 -3.57719 -2.15469 0
M  V30 6724 N 653.32 -0.135238 -1.57019 0
M  V30 6725 C 654.283 0.794707 -2.14981 0
M  V30 6726 C 655.283 1.18342 -1.08866 0
M  V30 6727 O 656.473 1.10627 -1.34563 0
M  V30 6728 C 653.605 2.07685 -2.70333 0
M  V30 6729 H 654.798 0.290696 -2.98488 0
M  V30 6730 H 652.351 0.114128 -1.55883 0
M  V30 6731 H 653.086 2.6248 -1.9046 0
M  V30 6732 H 652.871 1.80745 -3.47957 0
M  V30 6733 H 654.361 2.74127 -3.1503 0
M  V30 6734 N 654.798 1.5699 0.138552 0
M  V30 6735 C 656.045 1.83809 0.849732 0
M  V30 6736 C 656.373 0.717409 1.80786 0
M  V30 6737 O 655.628 -0.292897 1.93496 0
M  V30 6738 C 655.927 3.17007 1.65049 0
M  V30 6739 C 655.593 4.43037 0.838398 0
M  V30 6740 C 654.255 4.77262 0.614385 0
M  V30 6741 C 656.607 5.20495 0.271044 0
M  V30 6742 C 653.935 5.864 -0.187552 0
M  V30 6743 C 656.287 6.30476 -0.517979 0
M  V30 6744 C 654.951 6.63245 -0.75249 0
M  V30 6745 H 654.221 0.672605 0.310939 0
M  V30 6746 H 656.868 1.91166 0.112971 0
M  V30 6747 H 655.173 3.05138 2.4576 0
M  V30 6748 H 656.87 3.34975 2.20437 0
M  V30 6749 H 653.46 4.16211 1.02307 0
M  V30 6750 H 657.644 4.94422 0.431371 0
M  V30 6751 H 652.9 6.10226 -0.378659 0
M  V30 6752 H 657.074 6.89686 -0.964694 0
M  V30 6753 H 654.701 7.47648 -1.37573 0
M  V30 6754 N 656.276 -0.40816 1.52223 0
M  V30 6755 C 657.223 -1.49737 1.75635 0
M  V30 6756 C 658.193 -1.5493 0.598824 0
M  V30 6757 O 659.378 -1.71487 0.83648 0
M  V30 6758 C 656.518 -2.87174 1.91376 0
M  V30 6759 C 655.631 -2.91283 3.19027 0
M  V30 6760 C 654.766 -4.20026 3.25195 0
M  V30 6761 C 653.805 -4.18113 4.47044 0
M  V30 6762 N 652.942 -5.38429 4.50598 0
M  V30 6763 H 657.782 -1.29075 2.68596 0
M  V30 6764 H 655.319 -0.626518 1.33091 0
M  V30 6765 H 657.277 -3.66959 1.98486 0
M  V30 6766 H 655.907 -3.06329 1.01795 0
M  V30 6767 H 654.959 -2.03984 3.21084 0
M  V30 6768 H 656.271 -2.85734 4.08849 0
M  V30 6769 H 655.425 -5.08204 3.31382 0
M  V30 6770 H 654.164 -4.28271 2.33313 0
M  V30 6771 H 653.169 -3.28325 4.41002 0
M  V30 6772 H 654.394 -4.11507 5.40221 0
M  V30 6773 H 652.34 -5.4734 3.616 0
M  V30 6774 H 652.257 -5.34879 5.34266 0
M  V30 6775 H 653.525 -6.28557 4.61016 0
M  V30 6776 N 657.755 -1.42862 -0.66545 0
M  V30 6777 C 658.98 -1.47456 -1.45848 0
M  V30 6778 C 659.405 -0.0900312 -1.87884 0
M  V30 6779 O 658.763 0.913587 -1.56599 0
M  V30 6780 C 658.811 -2.41514 -2.67774 0
M  V30 6781 O 657.915 -1.89296 -3.66389 0
M  V30 6782 H 657.256 -0.499236 -0.437789 0
M  V30 6783 H 659.786 -1.8765 -0.815394 0
M  V30 6784 H 659.796 -2.58409 -3.15735 0
M  V30 6785 H 658.471 -3.42099 -2.36519 0
M  V30 6786 H 657.048 -1.82003 -3.25468 0
M  V30 6787 N 659.233 0.902656 -1.29189 0
M  V30 6788 C 660.481 1.6496 -1.16758 0
M  V30 6789 C 660.802 1.92952 0.28188 0
M  V30 6790 O 660.072 1.55351 1.19344 0
M  V30 6791 H 658.652 0.611447 -0.429118 0
M  V30 6792 H 661.314 1.0825 -1.62074 0
M  V30 6793 H 660.41 2.60728 -1.71544 0
M  V30 6794 N 660.711 1.11618 1.11262 0
M  V30 6795 C 661.643 0.734015 2.17129 0
M  V30 6796 C 662.656 -0.235243 1.61091 0
M  V30 6797 O 663.845 -0.0178597 1.78491 0
M  V30 6798 C 660.945 0.0643682 3.38839 0
M  V30 6799 C 660.118 1.06092 4.24339 0
M  V30 6800 C 659.177 0.420482 5.24517 0
M  V30 6801 O 658.203 1.07495 5.58957 0
M  V30 6802 N 659.405 -0.815828 5.74739 0
M  V30 6803 H 662.17 1.64492 2.50524 0
M  V30 6804 H 659.731 1.00664 1.26801 0
M  V30 6805 H 661.723 -0.375851 4.02951 0
M  V30 6806 H 660.293 -0.749147 3.03491 0
M  V30 6807 H 659.513 1.67903 3.56654 0
M  V30 6808 H 660.801 1.73507 4.78302 0
M  V30 6809 H 660.199 -1.36668 5.48943 0
M  V30 6810 H 658.756 -1.199 6.40677 0
M  V30 6811 N 662.189 -1.289 0.906776 0
M  V30 6812 C 663.466 -1.90221 0.455537 0
M  V30 6813 C 663.846 -1.82251 -1.06527 0
M  V30 6814 O 663.194 -1.25385 -1.91026 0
M  V30 6815 C 663.404 -3.35015 0.97806 0
M  V30 6816 C 664.752 -4.12018 1.02598 0
M  V30 6817 O 665.776 -3.43947 0.926218 0
M  V30 6818 O 664.635 -5.33677 1.17689 0
M  V30 6819 H 661.729 -0.814505 0.143214 0
M  V30 6820 H 664.275 -1.37317 0.997104 0
M  V30 6821 H 663.047 -3.35006 2.02204 0
M  V30 6822 H 662.67 -3.95408 0.416914 0
M  V30 6823 N 663.667 -0.670007 -1.42649 0
M  V30 6824 C 664.63 0.00204659 -2.292 0
M  V30 6825 C 665.63 0.733817 -1.4308 0
M  V30 6826 O 666.82 0.57254 -1.64522 0
M  V30 6827 C 663.952 1.01359 -3.25483 0
M  V30 6828 H 665.145 -0.759696 -2.90118 0
M  V30 6829 H 662.698 -0.432105 -1.50208 0
M  V30 6830 H 663.433 1.80399 -2.69493 0
M  V30 6831 H 663.218 0.492323 -3.88997 0
M  V30 6832 H 664.708 1.4824 -3.90403 0
M  V30 6833 N 665.145 1.52092 -0.413018 0
M  V30 6834 C 666.391 2.02154 0.161737 0
M  V30 6835 C 666.724 1.29789 1.44459 0
M  V30 6836 O 665.999 0.405378 1.90229 0
M  V30 6837 C 666.282 3.5781 0.405463 0
M  V30 6838 C 666.135 4.40819 -0.894335 0
M  V30 6839 C 667.454 4.23821 1.18591 0
M  V30 6840 H 664.573 0.734769 0.0573077 0
M  V30 6841 H 667.215 1.81948 -0.547247 0
M  V30 6842 H 665.365 3.75158 1.0094 0
M  V30 6843 H 667.037 4.35175 -1.53039 0
M  V30 6844 H 665.28 4.06877 -1.50444 0
M  V30 6845 H 665.951 5.47819 -0.678144 0
M  V30 6846 H 668.427 4.10596 0.674573 0
M  V30 6847 H 667.303 5.32663 1.3252 0
M  V30 6848 H 667.564 3.83038 2.20758 0
M  V30 6849 N 666.623 0.143563 1.56945 0
M  V30 6850 C 668.034 -0.37783 1.82837 0
M  V30 6851 C 668.385 -1.64967 1.06209 0
M  V30 6852 O 667.51 -2.14221 0.306291 0
M  V30 6853 C 668.105 -0.692274 3.31652 0
M  V30 6854 C 666.664 -1.1582 3.58138 0
M  V30 6855 C 665.811 -0.17951 2.76718 0
M  V30 6856 H 668.762 0.368317 1.54367 0
M  V30 6857 H 668.783 -1.54729 3.47619 0
M  V30 6858 H 668.295 0.233572 3.87397 0
M  V30 6859 H 666.396 -2.10011 3.07776 0
M  V30 6860 H 666.509 -1.08655 4.66616 0
M  V30 6861 H 664.873 -0.671458 2.4569 0
M  V30 6862 H 665.656 0.739865 3.35233 0
M  V30 6863 N 668.101 -1.57061 -0.130224 0
M  V30 6864 C 669.347 -1.8453 -0.841216 0
M  V30 6865 C 669.68 -0.727666 -1.80052 0
M  V30 6866 O 668.955 0.267419 -1.92653 0
M  V30 6867 C 669.238 -3.22553 -1.60099 0
M  V30 6868 C 669.091 -4.44901 -0.662048 0
M  V30 6869 C 670.41 -3.58003 -2.55973 0
M  V30 6870 H 667.529 -0.671215 -0.304366 0
M  V30 6871 H 670.171 -1.89705 -0.105821 0
M  V30 6872 H 668.321 -3.18272 -2.22789 0
M  V30 6873 H 669.993 -4.61278 -0.0448559 0
M  V30 6874 H 668.236 -4.33791 0.0272253 0
M  V30 6875 H 668.907 -5.3812 -1.23006 0
M  V30 6876 H 671.383 -3.63002 -2.03393 0
M  V30 6877 H 670.259 -4.55576 -3.06172 0
M  V30 6878 H 670.52 -2.84833 -3.38116 0
M  V30 6879 N 669.579 0.400081 -1.52437 0
M  V30 6880 C 670.99 0.97851 -1.59003 0
M  V30 6881 C 671.341 1.91293 -0.436068 0
M  V30 6882 O 670.466 2.1183 0.442365 0
M  V30 6883 C 671.061 1.78145 -2.88184 0
M  V30 6884 C 669.62 2.30976 -2.97199 0
M  V30 6885 C 668.767 1.11212 -2.54022 0
M  V30 6886 H 671.718 0.180002 -1.57676 0
M  V30 6887 H 671.739 2.63968 -2.74046 0
M  V30 6888 H 671.251 1.1011 -3.72152 0
M  V30 6889 H 669.352 3.02355 -2.17744 0
M  V30 6890 H 669.465 2.61221 -4.01622 0
M  V30 6891 H 667.829 1.46882 -2.08081 0
M  V30 6892 H 668.612 0.447307 -3.40373 0
M  V30 6893 N 671.057 1.43213 0.657864 0
M  V30 6894 C 672.004 1.48011 1.77092 0
M  V30 6895 C 672.974 0.330291 1.62783 0
M  V30 6896 O 674.159 0.536787 1.83094 0
M  V30 6897 C 671.299 1.40461 3.15222 0
M  V30 6898 C 670.412 2.65612 3.40697 0
M  V30 6899 C 669.547 2.50083 4.68649 0
M  V30 6900 C 668.586 3.70525 4.87214 0
M  V30 6901 N 667.723 3.53835 6.0642 0
M  V30 6902 H 672.563 2.43121 1.72326 0
M  V30 6903 H 670.1 1.20687 0.841013 0
M  V30 6904 H 672.058 1.34079 3.95068 0
M  V30 6905 H 670.688 0.489359 3.19069 0
M  V30 6906 H 669.74 2.82292 2.54982 0
M  V30 6907 H 671.052 3.5509 3.50303 0
M  V30 6908 H 670.206 2.41383 5.56614 0
M  V30 6909 H 668.945 1.58121 4.61356 0
M  V30 6910 H 667.95 3.79639 3.97686 0
M  V30 6911 H 669.175 4.63489 4.96341 0
M  V30 6912 H 667.121 2.64604 6.00267 0
M  V30 6913 H 667.038 4.36912 6.16963 0
M  V30 6914 H 668.306 3.48978 6.97019 0
M  V30 6915 N 672.536 -0.895792 1.29666 0
M  V30 6916 C 673.952 -1.17726 1.07763 0
M  V30 6917 C 674.152 -2.00794 -0.168576 0
M  V30 6918 O 673.208 -2.37213 -0.865244 0
M  V30 6919 C 674.521 -1.89441 2.33522 0
M  V30 6920 C 676.069 -2.02251 2.3888 0
M  V30 6921 C 676.544 -2.77378 3.64452 0
M  V30 6922 N 678.035 -2.8493 3.65198 0
M  V30 6923 C 678.77 -3.43606 4.59045 0
M  V30 6924 N 678.266 -4.03417 5.63228 0
M  V30 6925 N 680.059 -3.41317 4.46608 0
M  V30 6926 H 672.21 -0.341652 2.09634 0
M  V30 6927 H 674.473 -0.213865 0.923561 0
M  V30 6928 H 674.179 -1.35842 3.24407 0
M  V30 6929 H 674.053 -2.89893 2.41334 0
M  V30 6930 H 676.44 -2.55025 1.4848 0
M  V30 6931 H 676.521 -1.0092 2.3505 0
M  V30 6932 H 676.165 -2.25279 4.55205 0
M  V30 6933 H 676.095 -3.79062 3.65541 0
M  V30 6934 H 678.586 -2.42453 2.89871 0
M  V30 6935 H 678.899 -4.46224 6.30955 0
M  V30 6936 H 677.244 -4.01868 5.67033 0
M  V30 6937 H 680.435 -2.93812 3.64407 0
M  V30 6938 H 680.608 -3.86751 5.1993 0
M  V30 6939 N 674.014 -1.12206 -1.10668 0
M  V30 6940 C 675.263 -0.870595 -1.81944 0
M  V30 6941 C 675.576 0.605447 -1.85994 0
M  V30 6942 O 676.782 0.973433 -2.53449 0
M  V30 6943 C 675.238 -1.50783 -3.26791 0
M  V30 6944 C 674.846 -3.01849 -3.31046 0
M  V30 6945 C 676.59 -1.33653 -4.02911 0
M  V30 6946 C 674.497 -3.58518 -4.70339 0
M  V30 6947 H 673.427 -0.322043 -0.681765 0
M  V30 6948 H 676.078 -1.34827 -1.24475 0
M  V30 6949 H 674.46 -0.957825 -3.84242 0
M  V30 6950 H 675.634 -3.63321 -2.83433 0
M  V30 6951 H 673.949 -3.18346 -2.68411 0
M  V30 6952 H 676.546 -1.73416 -5.05797 0
M  V30 6953 H 676.889 -0.279949 -4.15358 0
M  V30 6954 H 677.422 -1.85562 -3.51868 0
M  V30 6955 H 674.161 -4.63925 -4.63091 0
M  V30 6956 H 673.681 -3.01819 -5.18329 0
M  V30 6957 H 675.36 -3.57434 -5.39305 0
M  V30 6958 N 675.492 1.28418 -0.913599 0
M  V30 6959 C 676.738 1.9527 -0.547484 0
M  V30 6960 C 677.071 1.71745 0.906486 0
M  V30 6961 O 676.346 1.03834 1.64465 0
M  V30 6962 C 676.629 3.49748 -0.857205 0
M  V30 6963 C 676.482 3.82675 -2.3639 0
M  V30 6964 C 677.801 4.3868 -0.353258 0
M  V30 6965 H 674.92 0.709236 -0.200381 0
M  V30 6966 H 677.562 1.51789 -1.14281 0
M  V30 6967 H 675.712 3.86915 -0.350548 0
M  V30 6968 H 677.384 3.55378 -2.94116 0
M  V30 6969 H 675.627 3.29724 -2.81894 0
M  V30 6970 H 676.298 4.90547 -2.53115 0
M  V30 6971 H 678.774 4.08584 -0.787288 0
M  V30 6972 H 677.65 5.45621 -0.599049 0
M  V30 6973 H 677.911 4.35753 0.746413 0
M  V30 6974 N 676.97 0.677563 1.42291 0
M  V30 6975 C 678.219 0.198173 2.00724 0
M  V30 6976 C 678.532 -1.20325 1.54211 0
M  V30 6977 O 679.738 -1.77916 2.05081 0
M  V30 6978 C 678.194 0.303432 3.58619 0
M  V30 6979 C 677.802 1.70909 4.14119 0
M  V30 6980 C 679.546 -0.117103 4.24338 0
M  V30 6981 C 677.453 1.76696 5.64387 0
M  V30 6982 H 676.383 0.070329 0.750713 0
M  V30 6983 H 679.034 0.843147 1.62982 0
M  V30 6984 H 677.416 -0.409482 3.93877 0
M  V30 6985 H 678.59 2.44931 3.90315 0
M  V30 6986 H 676.905 2.07771 3.6086 0
M  V30 6987 H 679.502 -0.0940471 5.34617 0
M  V30 6988 H 679.845 -1.15283 4.00019 0
M  V30 6989 H 680.378 0.5449 3.9405 0
M  V30 6990 H 677.117 2.7826 5.93508 0
M  V30 6991 H 676.637 1.07034 5.90173 0
M  V30 6992 H 678.316 1.52166 6.28852 0
M  V30 6993 N 678.448 -1.51871 0.421078 0
M  V30 6994 C 679.696 -2.01539 -0.150492 0
M  V30 6995 C 680.017 -1.30803 -1.44623 0
M  V30 6996 O 679.287 -0.437568 -1.90951 0
M  V30 6997 H 677.867 -0.744698 -0.0586041 0
M  V30 6998 H 680.529 -1.8668 0.560059 0
M  V30 6999 H 679.625 -3.10264 -0.338068 0
M  V30 7000 N 679.926 -0.151884 -1.56866 0
M  V30 7001 C 681.203 0.543328 -1.87902 0
M  V30 7002 C 681.583 1.82636 -1.05864 0
M  V30 7003 O 680.931 2.28028 -0.146868 0
M  V30 7004 C 681.141 0.804056 -3.39611 0
M  V30 7005 C 682.489 1.14267 -4.08935 0
M  V30 7006 O 683.513 0.893248 -3.44818 0
M  V30 7007 O 682.372 1.61229 -5.22176 0
M  V30 7008 H 679.466 0.277724 -0.778973 0
M  V30 7009 H 682.012 -0.188862 -1.68646 0
M  V30 7010 H 680.784 -0.103772 -3.91162 0
M  V30 7011 H 680.407 1.59025 -3.64413 0
M  V30 7012 N 681.404 1.57128 0.121893 0
M  V30 7013 C 682.367 1.99197 1.13372 0
M  V30 7014 C 683.367 0.881728 1.3447 0
M  V30 7015 O 684.557 1.14783 1.31036 0
M  V30 7016 C 681.689 2.32963 2.4888 0
M  V30 7017 H 682.882 2.89788 0.772204 0
M  V30 7018 H 680.435 1.51952 0.366093 0
M  V30 7019 H 681.17 1.45243 2.89957 0
M  V30 7020 H 680.955 3.13934 2.34921 0
M  V30 7021 H 682.445 2.66261 3.21706 0
M  V30 7022 N 682.882 -0.391992 1.52647 0
M  V30 7023 C 684.107 -1.16312 1.71716 0
M  V30 7024 C 684.532 -1.83042 0.433279 0
M  V30 7025 O 683.89 -1.70705 -0.610707 0
M  V30 7026 C 683.938 -2.18908 2.86551 0
M  V30 7027 O 683.042 -3.2543 2.53316 0
M  V30 7028 H 682.383 -0.338743 0.571095 0
M  V30 7029 H 684.913 -0.457202 1.99426 0
M  V30 7030 H 684.923 -2.62954 3.1196 0
M  V30 7031 H 683.598 -1.69726 3.79692 0
M  V30 7032 H 682.175 -2.86543 2.38637 0
M  V30 7033 N 684.36 -1.4356 -0.65026 0
M  V30 7034 C 685.27 -1.514 -1.79207 0
M  V30 7035 C 686.286 -0.400895 -1.69319 0
M  V30 7036 O 687.462 -0.655458 -1.90436 0
M  V30 7037 C 684.527 -1.43737 -3.155 0
M  V30 7038 C 683.588 -2.65743 -3.37163 0
M  V30 7039 C 682.821 -2.58436 -4.66954 0
M  V30 7040 O 683.044 -1.63374 -5.46503 0
M  V30 7041 O 681.978 -3.48984 -4.90402 0
M  V30 7042 H 685.804 -2.47825 -1.75547 0
M  V30 7043 H 683.389 -1.25594 -0.809111 0
M  V30 7044 H 685.271 -1.41916 -3.96784 0
M  V30 7045 H 683.946 -0.504488 -3.19745 0
M  V30 7046 H 682.853 -2.73136 -2.55632 0
M  V30 7047 H 684.186 -3.58014 -3.37768 0
M  V30 7048 N 685.838 0.888903 -1.30139 0
M  V30 7049 C 687.066 1.67358 -1.21651 0
M  V30 7050 C 687.481 1.87499 0.221246 0
M  V30 7051 O 686.838 1.41969 1.14677 0
M  V30 7052 C 686.889 3.05213 -1.93719 0
M  V30 7053 O 686.61 2.85984 -3.31881 0
M  V30 7054 C 688.111 3.9964 -1.9184 0
M  V30 7055 H 685.331 0.522365 -0.42116 0
M  V30 7056 H 687.875 1.11086 -1.71698 0
M  V30 7057 H 686.03 3.5823 -1.4748 0
M  V30 7058 H 686.444 3.73411 -3.68327 0
M  V30 7059 H 687.918 4.93749 -2.46811 0
M  V30 7060 H 688.395 4.29955 -0.896409 0
M  V30 7061 H 689.001 3.52558 -2.37872 0
M  V30 7062 N 687.317 1.12792 1.10072 0
M  V30 7063 C 688.28 0.802264 2.14701 0
M  V30 7064 C 689.28 -0.18515 1.59731 0
M  V30 7065 O 690.47 0.041109 1.74151 0
M  V30 7066 C 687.602 0.19285 3.40354 0
M  V30 7067 H 688.795 1.72932 2.45019 0
M  V30 7068 H 686.348 0.931662 1.25498 0
M  V30 7069 H 687.083 -0.743748 3.15656 0
M  V30 7070 H 686.868 0.903827 3.81541 0
M  V30 7071 H 688.358 -0.0183704 4.17596 0
M  V30 7072 N 688.795 -1.27931 0.920396 0
M  V30 7073 C 689.725 -2.29487 0.431024 0
M  V30 7074 C 690.706 -1.62435 -0.504861 0
M  V30 7075 O 691.891 -1.89797 -0.411176 0
M  V30 7076 C 689.021 -3.45788 -0.323709 0
M  V30 7077 C 687.975 -4.24784 0.523658 0
M  V30 7078 C 687.301 -5.33488 -0.359809 0
M  V30 7079 C 688.601 -4.90874 1.78437 0
M  V30 7080 H 690.295 -2.70671 1.27975 0
M  V30 7081 H 687.841 -1.30121 0.616813 0
M  V30 7082 H 689.794 -4.15927 -0.676952 0
M  V30 7083 H 688.518 -3.03502 -1.2064 0
M  V30 7084 H 687.177 -3.56382 0.85951 0
M  V30 7085 H 686.825 -4.87445 -1.24124 0
M  V30 7086 H 686.525 -5.87247 0.203605 0
M  V30 7087 H 688.049 -6.06472 -0.708787 0
M  V30 7088 H 689.463 -5.53339 1.49963 0
M  V30 7089 H 687.86 -5.54659 2.29071 0
M  V30 7090 H 688.93 -4.14988 2.50824 0
M  V30 7091 N 690.273 -0.685099 -1.4193 0
M  V30 7092 C 691.203 -0.0273506 -2.33484 0
M  V30 7093 C 692.184 0.778366 -1.51246 0
M  V30 7094 O 693.369 0.733449 -1.79817 0
M  V30 7095 C 690.499 0.917272 -3.34968 0
M  V30 7096 C 689.453 0.21941 -4.27437 0
M  V30 7097 C 688.779 1.27768 -5.1921 0
M  V30 7098 C 690.079 -0.907894 -5.14349 0
M  V30 7099 H 691.773 -0.791994 -2.88735 0
M  V30 7100 H 689.319 -0.382308 -1.38832 0
M  V30 7101 H 691.272 1.38657 -3.97935 0
M  V30 7102 H 689.996 1.71346 -2.78043 0
M  V30 7103 H 688.655 -0.229757 -3.65879 0
M  V30 7104 H 688.303 2.06612 -4.58607 0
M  V30 7105 H 688.003 0.815803 -5.81909 0
M  V30 7106 H 689.527 1.7477 -5.85054 0
M  V30 7107 H 690.941 -0.519348 -5.70943 0
M  V30 7108 H 689.338 -1.2962 -5.85934 0
M  V30 7109 H 690.408 -1.75218 -4.52136 0
M  V30 7110 N 691.751 1.51645 -0.429126 0
M  V30 7111 C 692.698 2.27542 0.386446 0
M  V30 7112 C 693.668 1.30786 1.02393 0
M  V30 7113 O 694.853 1.59678 1.0444 0
M  V30 7114 C 691.993 3.11457 1.48623 0
M  V30 7115 C 691.106 4.23196 0.867691 0
M  V30 7116 C 690.241 4.94435 1.94183 0
M  V30 7117 C 689.28 5.98108 1.30129 0
M  V30 7118 N 688.417 6.62786 2.31644 0
M  V30 7119 H 693.257 2.968 -0.267155 0
M  V30 7120 H 690.794 1.46397 -0.143591 0
M  V30 7121 H 692.752 3.58429 2.13506 0
M  V30 7122 H 691.382 2.44329 2.10957 0
M  V30 7123 H 690.434 3.80248 0.107373 0
M  V30 7124 H 691.746 4.97499 0.35997 0
M  V30 7125 H 690.9 5.44914 2.66747 0
M  V30 7126 H 689.639 4.19744 2.48326 0
M  V30 7127 H 688.644 5.4693 0.561082 0
M  V30 7128 H 689.869 6.74751 0.767303 0
M  V30 7129 H 687.815 5.90913 2.84883 0
M  V30 7130 H 687.732 7.32828 1.85741 0
M  V30 7131 H 689 7.17897 3.03717 0
M  V30 7132 N 693.229 0.160201 1.56784 0
M  V30 7133 C 694.476 -0.487588 1.96542 0
M  V30 7134 C 694.804 -1.63999 1.04569 0
M  V30 7135 O 694.059 -1.95546 0.0775211 0
M  V30 7136 C 694.358 -1.02259 3.42459 0
M  V30 7137 C 694.024 0.0127436 4.50898 0
M  V30 7138 C 692.686 0.297318 4.80281 0
M  V30 7139 C 695.038 0.716078 5.16257 0
M  V30 7140 C 692.366 1.29081 5.72324 0
M  V30 7141 C 694.718 1.69847 6.09372 0
M  V30 7142 C 693.382 1.99061 6.37127 0
M  V30 7143 H 692.652 -0.178421 0.719199 0
M  V30 7144 H 695.299 0.249818 1.89864 0
M  V30 7145 H 693.604 -1.8376 3.46034 0
M  V30 7146 H 695.301 -1.53261 3.70556 0
M  V30 7147 H 691.891 -0.219235 4.28039 0
M  V30 7148 H 696.075 0.509428 4.93679 0
M  V30 7149 H 691.331 1.52344 5.92116 0
M  V30 7150 H 695.505 2.2489 6.59088 0
M  V30 7151 H 693.132 2.76194 7.08252 0
M  V30 7152 N 694.707 -1.5719 -0.113559 0
M  V30 7153 C 695.932 -1.89702 -0.838336 0
M  V30 7154 C 696.357 -0.752679 -1.72384 0
M  V30 7155 O 695.715 0.296575 -1.78858 0
M  V30 7156 C 695.763 -3.20989 -1.64312 0
M  V30 7157 O 694.867 -3.07278 -2.75053 0
M  V30 7158 H 694.208 -0.622339 -0.231496 0
M  V30 7159 H 696.738 -2.04382 -0.0943228 0
M  V30 7160 H 696.748 -3.53843 -2.03123 0
M  V30 7161 H 695.423 -4.03869 -0.993119 0
M  V30 7162 H 694 -2.85901 -2.39406 0
M  V30 7163 N 696.185 0.383891 -1.52853 0
M  V30 7164 C 697.095 1.49343 -1.80925 0
M  V30 7165 C 698.111 1.59458 -0.696348 0
M  V30 7166 O 699.287 1.75698 -0.984481 0
M  V30 7167 C 696.352 2.84819 -1.97684 0
M  V30 7168 C 695.413 2.84382 -3.21598 0
M  V30 7169 C 694.646 4.13397 -3.37548 0
M  V30 7170 O 694.869 5.08619 -2.58192 0
M  V30 7171 O 693.803 4.20325 -4.30826 0
M  V30 7172 H 697.629 1.2855 -2.75152 0
M  V30 7173 H 695.214 0.572229 -1.38007 0
M  V30 7174 H 697.096 3.65125 -2.10385 0
M  V30 7175 H 695.771 3.05627 -1.06647 0
M  V30 7176 H 694.678 2.0284 -3.14336 0
M  V30 7177 H 696.011 2.68526 -4.12498 0
M  V30 7178 N 697.663 1.43903 0.642637 0
M  V30 7179 C 698.593 1.52697 1.76652 0
M  V30 7180 C 699.574 0.380816 1.65782 0
M  V30 7181 O 700.759 0.599432 1.84717 0
M  V30 7182 C 697.889 1.45975 3.15133 0
M  V30 7183 C 696.843 2.58949 3.40778 0
M  V30 7184 C 696.169 2.37279 4.79169 0
M  V30 7185 C 697.469 4.01153 3.34475 0
M  V30 7186 H 699.163 2.46766 1.69549 0
M  V30 7187 H 696.709 1.18767 0.814279 0
M  V30 7188 H 698.662 1.5073 3.93521 0
M  V30 7189 H 697.386 0.484162 3.22991 0
M  V30 7190 H 696.045 2.53564 2.64765 0
M  V30 7191 H 695.693 1.37939 4.83717 0
M  V30 7192 H 695.393 3.13016 4.97287 0
M  V30 7193 H 696.917 2.43834 5.59801 0
M  V30 7194 H 698.331 4.07968 4.02784 0
M  V30 7195 H 696.728 4.77001 3.64129 0
M  V30 7196 H 697.798 4.25539 2.32475 0
M  V30 7197 N 699.141 -0.881989 1.30609 0
M  V30 7198 C 700.369 -1.66711 1.22536 0
M  V30 7199 C 700.784 -1.87614 -0.2113 0
M  V30 7200 O 700.141 -1.42576 -1.13923 0
M  V30 7201 C 700.192 -3.04182 1.95335 0
M  V30 7202 O 699.913 -2.8422 3.33393 0
M  V30 7203 C 701.414 -3.98617 1.93956 0
M  V30 7204 H 698.634 -0.520124 0.423925 0
M  V30 7205 H 701.178 -1.10174 1.72285 0
M  V30 7206 H 699.333 -3.57442 1.49378 0
M  V30 7207 H 699.747 -3.71452 3.70302 0
M  V30 7208 H 701.221 -4.92433 2.49426 0
M  V30 7209 H 701.698 -4.29473 0.919198 0
M  V30 7210 H 702.304 -3.51292 2.39738 0
M  V30 7211 N 700.619 -1.13374 -1.09472 0
M  V30 7212 C 701.549 -0.833268 -2.18126 0
M  V30 7213 C 702.53 0.207169 -1.68834 0
M  V30 7214 O 703.715 0.0662012 -1.94087 0
M  V30 7215 C 700.845 -0.297979 -3.46019 0
M  V30 7216 C 699.799 -1.27261 -4.08642 0
M  V30 7217 C 699.125 -0.597104 -5.31356 0
M  V30 7218 C 700.425 -2.63095 -4.51197 0
M  V30 7219 H 702.119 -1.74182 -2.43518 0
M  V30 7220 H 699.665 -0.838921 -1.17039 0
M  V30 7221 H 701.618 -0.0754444 -4.21332 0
M  V30 7222 H 700.342 0.645959 -3.20148 0
M  V30 7223 H 699.001 -1.48113 -3.35348 0
M  V30 7224 H 698.649 0.352293 -5.01765 0
M  V30 7225 H 698.349 -1.24734 -5.74208 0
M  V30 7226 H 699.873 -0.38384 -6.09392 0
M  V30 7227 H 701.287 -2.46214 -5.17737 0
M  V30 7228 H 699.684 -3.2429 -5.04932 0
M  V30 7229 H 700.754 -3.20793 -3.6362 0
M  V30 7230 N 702.098 1.27442 -0.927168 0
M  V30 7231 C 703.346 1.94007 -0.566203 0
M  V30 7232 C 703.667 1.7323 0.895345 0
M  V30 7233 O 702.937 1.07973 1.63459 0
M  V30 7234 H 701.517 0.717917 -0.206409 0
M  V30 7235 H 704.179 1.55161 -1.17945 0
M  V30 7236 H 703.275 3.02401 -0.772028 0
M  V30 7237 N 703.576 0.692616 1.41565 0
M  V30 7238 C 704.524 0.0139952 2.32596 0
M  V30 7239 C 705.518 -0.771691 1.50802 0
M  V30 7240 O 706.724 -0.677646 1.66757 0
M  V30 7241 H 703.099 -0.0142745 0.751865 0
M  V30 7242 H 705.07 0.798851 2.87508 0
M  V30 7243 C 703.819 -0.910602 3.35564 0
M  V30 7244 H 703.142 -0.315446 3.98554 0
M  V30 7245 H 704.582 -1.3538 4.01806 0
M  V30 7246 C 703.041 -2.02539 2.6922 0
M  V30 7247 O 703.571 -3.11386 2.53775 0
M  V30 7248 N 701.777 -1.80227 2.27962 0
M  V30 7249 H 701.324 -0.917054 2.40724 0
M  V30 7250 H 701.282 -2.55001 1.83907 0
M  V30 7251 N 705.054 -1.51416 0.437162 0
M  V30 7252 C 706.017 -2.26312 -0.362729 0
M  V30 7253 C 707.017 -1.29748 -0.949847 0
M  V30 7254 O 708.207 -1.53462 -0.824325 0
M  V30 7255 C 705.339 -3.05475 -1.5132 0
M  V30 7256 H 706.532 -2.98459 0.29365 0
M  V30 7257 H 704.085 -1.55137 0.190327 0
M  V30 7258 H 704.82 -2.37744 -2.20563 0
M  V30 7259 H 704.605 -3.76401 -1.09838 0
M  V30 7260 H 706.095 -3.62209 -2.07833 0
M  V30 7261 N 706.532 -0.168513 -1.56696 0
M  V30 7262 C 707.465 0.801477 -2.13662 0
M  V30 7263 C 708.443 1.22786 -1.06594 0
M  V30 7264 O 709.627 1.32014 -1.34554 0
M  V30 7265 C 706.754 2.07896 -2.6739 0
M  V30 7266 C 705.8 1.79681 -3.86803 0
M  V30 7267 S 706.633 0.968556 -5.26668 0
M  V30 7268 C 707.789 2.25676 -5.83799 0
M  V30 7269 H 708.022 0.317121 -2.95604 0
M  V30 7270 H 705.555 0.0461132 -1.54331 0
M  V30 7271 H 707.513 2.81272 -2.98992 0
M  V30 7272 H 706.174 2.53445 -1.85539 0
M  V30 7273 H 705.367 2.74461 -4.22714 0
M  V30 7274 H 704.969 1.14402 -3.56073 0
M  V30 7275 H 707.261 3.2116 -5.96542 0
M  V30 7276 H 708.204 1.94238 -6.80939 0
M  V30 7277 H 708.612 2.37308 -5.12197 0
M  V30 7278 N 708.01 1.57248 0.105221 0
M  V30 7279 C 709.258 1.85204 0.808951 0
M  V30 7280 C 709.579 0.75574 1.7976 0
M  V30 7281 O 708.849 -0.218984 1.94672 0
M  V30 7282 H 707.429 0.683346 0.301739 0
M  V30 7283 H 710.091 1.94695 0.0892605 0
M  V30 7284 H 709.187 2.81595 1.34575 0
M  V30 7285 N 709.488 -0.375779 1.53054 0
M  V30 7286 C 710.718 -1.1387 1.72386 0
M  V30 7287 C 711.126 -1.8382 0.447966 0
M  V30 7288 O 710.469 -1.74027 -0.588244 0
M  V30 7289 C 710.531 -2.22047 2.82728 0
M  V30 7290 C 710.195 -1.71951 4.23417 0
M  V30 7291 C 711.192 -1.18909 5.06119 0
M  V30 7292 C 708.877 -1.77773 4.69789 0
M  V30 7293 C 710.871 -0.723529 6.3328 0
M  V30 7294 C 708.558 -1.30829 5.96931 0
M  V30 7295 C 709.556 -0.782077 6.78508 0
M  V30 7296 O 709.244 -0.319529 8.03265 0
M  V30 7297 H 708.976 -0.346835 0.580242 0
M  V30 7298 H 711.53 -0.443748 2.00549 0
M  V30 7299 H 709.76 -2.95006 2.50017 0
M  V30 7300 H 711.449 -2.83654 2.90336 0
M  V30 7301 H 712.215 -1.13758 4.7147 0
M  V30 7302 H 708.094 -2.17673 4.06373 0
M  V30 7303 H 711.638 -0.312126 6.96901 0
M  V30 7304 H 707.535 -1.3567 6.31081 0
M  V30 7305 H 708.303 -0.439796 8.17318 0
M  V30 7306 N 710.966 -1.44241 -0.634997 0
M  V30 7307 C 712.382 -1.28043 -0.952742 0
M  V30 7308 C 712.582 -0.21338 -2.00367 0
M  V30 7309 O 711.638 0.402042 -2.49279 0
M  V30 7310 C 712.951 -2.65076 -1.41968 0
M  V30 7311 C 714.499 -2.72755 -1.53537 0
M  V30 7312 C 714.974 -4.10249 -2.03616 0
M  V30 7313 N 716.465 -4.12406 -2.10892 0
M  V30 7314 C 717.2 -5.15641 -2.50803 0
M  V30 7315 N 716.696 -6.29239 -2.89879 0
M  V30 7316 N 718.489 -5.02995 -2.50903 0
M  V30 7317 H 710.64 -2.12315 0.060098 0
M  V30 7318 H 712.903 -0.947326 -0.0357325 0
M  V30 7319 H 712.609 -3.44213 -0.721804 0
M  V30 7320 H 712.483 -2.91704 -2.39141 0
M  V30 7321 H 714.87 -1.93939 -2.22422 0
M  V30 7322 H 714.951 -2.49872 -0.547496 0
M  V30 7323 H 714.595 -4.8954 -1.35327 0
M  V30 7324 H 714.525 -4.30507 -3.03268 0
M  V30 7325 H 717.016 -3.30417 -1.83393 0
M  V30 7326 H 717.329 -7.03827 -3.19135 0
M  V30 7327 H 715.674 -6.32683 -2.8764 0
M  V30 7328 H 718.865 -4.13306 -2.19763 0
M  V30 7329 H 719.038 -5.83574 -2.81683 0
M  V30 7330 N 712.444 0.87505 -1.31075 0
M  V30 7331 C 713.721 1.60976 -1.11113 0
M  V30 7332 C 714.101 2.08409 0.336006 0
M  V30 7333 O 713.449 1.85858 1.32924 0
M  V30 7334 C 713.659 2.77166 -2.12085 0
M  V30 7335 C 715.007 3.47254 -2.44335 0
M  V30 7336 O 716.031 2.87367 -2.10472 0
M  V30 7337 O 714.89 4.55276 -3.02301 0
M  V30 7338 H 711.984 0.707982 -0.427424 0
M  V30 7339 H 714.53 0.920957 -1.42536 0
M  V30 7340 H 713.302 2.39494 -3.09449 0
M  V30 7341 H 712.925 3.53737 -1.81538 0
M  V30 7342 N 713.922 1.13953 1.08869 0
M  V30 7343 C 715.338 0.878924 1.33218 0
M  V30 7344 C 715.538 -0.482478 1.95638 0
M  V30 7345 O 714.594 -1.22778 2.2064 0
M  V30 7346 C 715.907 2.00798 2.23832 0
M  V30 7347 C 717.455 2.04073 2.37325 0
M  V30 7348 C 717.93 3.16258 3.31278 0
M  V30 7349 N 719.421 3.15805 3.38853 0
M  V30 7350 C 720.156 3.99249 4.11567 0
M  V30 7351 N 719.652 4.92721 4.87029 0
M  V30 7352 N 721.445 3.87327 4.0735 0
M  V30 7353 H 713.596 2.01645 0.66731 0
M  V30 7354 H 715.859 0.878395 0.356547 0
M  V30 7355 H 715.565 2.98986 1.85203 0
M  V30 7356 H 715.439 1.92704 3.24261 0
M  V30 7357 H 717.826 1.06495 2.75214 0
M  V30 7358 H 717.907 2.16239 1.36654 0
M  V30 7359 H 717.551 4.14079 2.9411 0
M  V30 7360 H 717.481 3.0133 4.31866 0
M  V30 7361 H 719.972 2.48102 2.8505 0
M  V30 7362 H 720.285 5.52867 5.39961 0
M  V30 7363 H 718.63 4.96723 4.86098 0
M  V30 7364 H 721.821 3.13627 3.475 0
M  V30 7365 H 721.994 4.52585 4.63757 0
M  V30 7366 N 715.4 -1.26948 0.933913 0
M  V30 7367 C 716.647 -1.94087 0.577625 0
M  V30 7368 C 716.975 -1.73345 -0.88214 0
M  V30 7369 O 716.23 -1.05945 -1.64542 0
M  V30 7370 C 716.529 -3.46963 0.857406 0
M  V30 7371 C 716.195 -3.87834 2.2999 0
M  V30 7372 C 714.857 -3.98704 2.69423 0
M  V30 7373 C 717.209 -4.08442 3.23766 0
M  V30 7374 C 714.537 -4.27573 4.01744 0
M  V30 7375 C 716.889 -4.38798 4.55675 0
M  V30 7376 C 715.553 -4.47881 4.94934 0
M  V30 7377 H 714.823 -0.710215 0.211368 0
M  V30 7378 H 717.47 -1.50899 1.17905 0
M  V30 7379 H 715.775 -3.91416 0.173369 0
M  V30 7380 H 717.472 -3.97062 0.560615 0
M  V30 7381 H 714.062 -3.79916 1.98399 0
M  V30 7382 H 718.246 -3.99479 2.94499 0
M  V30 7383 H 713.502 -4.32815 4.31834 0
M  V30 7384 H 717.676 -4.5369 5.28335 0
M  V30 7385 H 715.303 -4.70005 5.97495 0
M  V30 7386 N 716.879 -0.700114 -1.41195 0
M  V30 7387 C 718.29 -0.307249 -1.84154 0
M  V30 7388 C 718.641 1.15539 -1.58572 0
M  V30 7389 O 717.766 1.88744 -1.05852 0
M  V30 7390 C 718.361 -0.550872 -3.34292 0
M  V30 7391 C 716.92 -0.211877 -3.75803 0
M  V30 7392 C 716.067 -0.830915 -2.64558 0
M  V30 7393 H 719.018 -0.900431 -1.30683 0
M  V30 7394 H 719.039 0.188954 -3.80031 0
M  V30 7395 H 718.551 -1.61548 -3.5288 0
M  V30 7396 H 716.652 0.848283 -3.62815 0
M  V30 7397 H 716.765 -0.67007 -4.74391 0
M  V30 7398 H 715.129 -0.260155 -2.53368 0
M  V30 7399 H 715.912 -1.89948 -2.85963 0
M  V30 7400 N 718.357 1.51182 -0.445186 0
M  V30 7401 C 719.304 2.27939 0.362291 0
M  V30 7402 C 720.274 1.31864 1.01 0
M  V30 7403 O 721.459 1.60776 1.02741 0
M  V30 7404 C 718.599 3.13016 1.45311 0
M  V30 7405 C 717.712 4.24093 0.822757 0
M  V30 7406 C 716.847 4.96467 1.88928 0
M  V30 7407 C 715.886 5.99454 1.23778 0
M  V30 7408 N 715.023 6.65206 2.24602 0
M  V30 7409 H 719.863 2.965 -0.29862 0
M  V30 7410 H 717.4 1.46237 -0.15911 0
M  V30 7411 H 719.358 3.60673 2.09692 0
M  V30 7412 H 717.988 2.46553 2.08354 0
M  V30 7413 H 717.04 3.80341 0.0670364 0
M  V30 7414 H 718.352 4.97853 0.307184 0
M  V30 7415 H 717.506 5.47712 2.60953 0
M  V30 7416 H 716.245 4.22355 2.4386 0
M  V30 7417 H 715.25 5.47494 0.503042 0
M  V30 7418 H 716.475 6.75527 0.695694 0
M  V30 7419 H 714.421 5.93901 2.78599 0
M  V30 7420 H 714.338 7.34756 1.77958 0
M  V30 7421 H 715.606 7.21078 2.96085 0
M  V30 7422 N 719.835 0.176821 1.56605 0
M  V30 7423 C 721.081 -0.467406 1.9734 0
M  V30 7424 C 721.414 -1.62523 1.06301 0
M  V30 7425 O 720.689 -1.94182 0.11125 0
M  V30 7426 C 720.972 -0.945106 3.47476 0
M  V30 7427 C 720.825 0.213273 4.49294 0
M  V30 7428 C 722.144 -1.8169 4.00845 0
M  V30 7429 H 719.263 -0.168426 0.717497 0
M  V30 7430 H 721.905 0.264065 1.88156 0
M  V30 7431 H 720.055 -1.56841 3.55434 0
M  V30 7432 H 721.727 0.850508 4.53392 0
M  V30 7433 H 719.97 0.867918 4.25029 0
M  V30 7434 H 720.641 -0.163187 5.51759 0
M  V30 7435 H 723.117 -1.29139 3.95553 0
M  V30 7436 H 721.993 -2.12015 5.06301 0
M  V30 7437 H 722.254 -2.76463 3.44994 0
M  V30 7438 N 721.313 -1.57302 -0.09688 0
M  V30 7439 C 722.553 -1.87823 -0.806334 0
M  V30 7440 C 722.917 -0.767593 -1.75989 0
M  V30 7441 O 724.118 -0.955173 -2.51257 0
M  V30 7442 C 722.389 -3.23585 -1.51749 0
M  V30 7443 S 723.948 -3.75795 -2.26547 0
M  V30 7444 H 720.766 -0.658281 -0.268676 0
M  V30 7445 H 723.368 -1.95397 -0.0635476 0
M  V30 7446 H 722.072 -4.0234 -0.809348 0
M  V30 7447 H 721.603 -3.19145 -2.30021 0
M  V30 7448 H 723.618 -3.49068 -3.52656 0
M  V30 7449 N 722.791 0.367657 -1.53252 0
M  V30 7450 C 723.701 1.47415 -1.82499 0
M  V30 7451 C 724.717 1.58711 -0.713222 0
M  V30 7452 O 725.893 1.74644 -1.00306 0
M  V30 7453 C 722.958 2.82706 -2.00694 0
M  V30 7454 C 722.019 2.80955 -3.24596 0
M  V30 7455 C 721.252 4.09793 -3.41914 0
M  V30 7456 O 721.475 5.05852 -2.63572 0
M  V30 7457 O 720.409 4.15731 -4.3526 0
M  V30 7458 H 724.235 1.25624 -2.765 0
M  V30 7459 H 721.82 0.557559 -1.38606 0
M  V30 7460 H 723.702 3.62873 -2.14246 0
M  V30 7461 H 722.377 3.04479 -1.09883 0
M  V30 7462 H 721.284 1.99494 -3.16469 0
M  V30 7463 H 722.617 2.64136 -4.15323 0
M  V30 7464 N 724.269 1.44576 0.627338 0
M  V30 7465 C 725.518 1.46837 1.38281 0
M  V30 7466 C 725.831 0.10635 1.95311 0
M  V30 7467 O 727.037 0.00651084 2.71499 0
M  V30 7468 C 725.493 2.58527 2.50384 0
M  V30 7469 C 725.101 4.00953 1.99851 0
M  V30 7470 C 726.845 2.70013 3.27557 0
M  V30 7471 C 724.752 5.0406 3.09318 0
M  V30 7472 H 723.682 0.546319 0.519664 0
M  V30 7473 H 726.333 1.70654 0.674497 0
M  V30 7474 H 724.715 2.27957 3.23808 0
M  V30 7475 H 725.889 4.41108 1.33267 0
M  V30 7476 H 724.204 3.93743 1.35482 0
M  V30 7477 H 726.801 3.44217 4.09168 0
M  V30 7478 H 727.144 1.75961 3.77284 0
M  V30 7479 H 727.677 3.00011 2.61224 0
M  V30 7480 H 724.416 5.99753 2.6453 0
M  V30 7481 H 723.936 4.68493 3.74532 0
M  V30 7482 H 725.615 5.2793 3.74031 0
M  V30 7483 N 725.747 -0.868086 1.31537 0
M  V30 7484 C 727.158 -1.437 1.19195 0
M  V30 7485 C 727.509 -1.95169 -0.200842 0
M  V30 7486 O 726.634 -1.86432 -1.09872 0
M  V30 7487 C 727.229 -2.612 2.15778 0
M  V30 7488 C 725.788 -3.1413 2.07363 0
M  V30 7489 C 724.935 -1.86845 2.049 0
M  V30 7490 H 727.886 -0.676457 1.43561 0
M  V30 7491 H 727.907 -3.37948 1.74847 0
M  V30 7492 H 727.419 -2.23709 3.17137 0
M  V30 7493 H 725.52 -3.56238 1.09204 0
M  V30 7494 H 725.633 -3.76285 2.96557 0
M  V30 7495 H 723.997 -2.05886 1.49943 0
M  V30 7496 H 724.78 -1.51589 3.08019 0
M  V30 7497 N 727.225 -1.14528 -1.08264 0
M  V30 7498 C 728.472 -0.914405 -1.80679 0
M  V30 7499 C 728.8 0.558952 -1.86295 0
M  V30 7500 O 728.055 1.43017 -1.33584 0
M  V30 7501 C 728.354 -1.46226 -3.26117 0
M  V30 7502 C 728.02 -2.95451 -3.40616 0
M  V30 7503 C 726.682 -3.36191 -3.4428 0
M  V30 7504 C 729.034 -3.91399 -3.44175 0
M  V30 7505 C 726.362 -4.71539 -3.49096 0
M  V30 7506 C 728.714 -5.26606 -3.50526 0
M  V30 7507 C 727.378 -5.66856 -3.52464 0
M  V30 7508 H 726.648 -0.334604 -0.661151 0
M  V30 7509 H 729.295 -1.4292 -1.27461 0
M  V30 7510 H 727.6 -0.868442 -3.82054 0
M  V30 7511 H 729.297 -1.25955 -3.80705 0
M  V30 7512 H 725.887 -2.62955 -3.38456 0
M  V30 7513 H 730.071 -3.61004 -3.40573 0
M  V30 7514 H 725.327 -5.02082 -3.4889 0
M  V30 7515 H 729.501 -6.00758 -3.52225 0
M  V30 7516 H 727.128 -6.71718 -3.55948 0
M  V30 7517 N 728.703 1.26451 -0.940633 0
M  V30 7518 C 729.651 2.28389 -0.440581 0
M  V30 7519 C 730.645 1.62402 0.481859 0
M  V30 7520 O 731.851 1.76361 0.360132 0
M  V30 7521 H 728.226 0.741716 -0.123938 0
M  V30 7522 H 730.197 2.67967 -1.31288 0
M  V30 7523 C 728.946 3.46576 0.279364 0
M  V30 7524 H 728.269 3.97574 -0.421274 0
M  V30 7525 H 729.709 4.19826 0.59348 0
M  V30 7526 C 728.168 3.01815 1.49697 0
M  V30 7527 O 728.698 3.06607 2.59529 0
M  V30 7528 N 726.904 2.57163 1.35334 0
M  V30 7529 H 726.451 2.53464 0.459743 0
M  V30 7530 H 726.409 2.27578 2.16923 0
M  V30 7531 N 730.181 0.707592 1.40822 0
M  V30 7532 C 731.406 0.251626 2.05868 0
M  V30 7533 C 731.831 -1.09503 1.5294 0
M  V30 7534 O 731.189 -1.68806 0.661385 0
M  V30 7535 C 731.237 0.23287 3.59847 0
M  V30 7536 O 730.341 -0.788477 4.04792 0
M  V30 7537 H 729.682 0.119936 0.653078 0
M  V30 7538 H 732.212 0.96583 1.80369 0
M  V30 7539 H 732.222 0.0678204 4.07944 0
M  V30 7540 H 730.897 1.21565 3.97737 0
M  V30 7541 H 729.474 -0.591802 3.68174 0
M  V30 7542 N 731.66 -1.50943 0.453197 0
M  V30 7543 C 732.888 -2.06628 -0.106135 0
M  V30 7544 C 733.303 -1.31901 -1.35084 0
M  V30 7545 O 732.66 -0.383074 -1.78434 0
M  V30 7546 C 732.711 -3.5914 -0.412368 0
M  V30 7547 O 732.432 -4.31047 0.782948 0
M  V30 7548 C 733.933 -4.31391 -1.02064 0
M  V30 7549 H 731.153 -0.670999 -0.000885896 0
M  V30 7550 H 733.697 -1.94331 0.63684 0
M  V30 7551 H 731.852 -3.71299 -1.10526 0
M  V30 7552 H 732.266 -5.21948 0.516736 0
M  V30 7553 H 733.74 -5.39135 -1.1848 0
M  V30 7554 H 734.217 -3.90714 -2.00598 0
M  V30 7555 H 734.823 -4.23716 -0.366664 0
M  V30 7556 N 733.138 -0.185124 -1.56509 0
M  V30 7557 C 734.086 0.756505 -2.19954 0
M  V30 7558 C 735.08 1.22725 -1.16769 0
M  V30 7559 O 736.286 1.1913 -1.34937 0
M  V30 7560 H 732.661 0.262279 -0.704779 0
M  V30 7561 H 734.632 0.197587 -2.97745 0
M  V30 7562 C 733.381 1.96975 -2.86524 0
M  V30 7563 H 732.704 1.61658 -3.65659 0
M  V30 7564 H 734.144 2.60719 -3.34367 0
M  V30 7565 C 732.603 2.80219 -1.87027 0
M  V30 7566 O 733.133 3.77821 -1.36433 0
M  V30 7567 N 731.339 2.4551 -1.55477 0
M  V30 7568 H 730.886 1.66199 -1.96813 0
M  V30 7569 H 730.844 3.01493 -0.891597 0
M  V30 7570 N 734.616 1.57351 0.0885366 0
M  V30 7571 C 735.563 2.02523 1.10693 0
M  V30 7572 C 736.533 0.902736 1.39427 0
M  V30 7573 O 737.718 1.16921 1.50779 0
M  V30 7574 C 734.858 2.46013 2.42016 0
M  V30 7575 C 733.971 3.7181 2.19957 0
M  V30 7576 C 733.106 4.04152 3.44724 0
M  V30 7577 C 732.145 5.2304 3.17956 0
M  V30 7578 N 731.282 5.51102 4.35007 0
M  V30 7579 H 736.122 2.89302 0.714742 0
M  V30 7580 H 733.659 1.43084 0.341378 0
M  V30 7581 H 735.617 2.69274 3.18665 0
M  V30 7582 H 734.247 1.62235 2.79069 0
M  V30 7583 H 733.299 3.55987 1.34079 0
M  V30 7584 H 734.611 4.58604 1.96173 0
M  V30 7585 H 733.765 4.28225 4.29777 0
M  V30 7586 H 732.504 3.15893 3.71568 0
M  V30 7587 H 731.509 4.98781 2.31296 0
M  V30 7588 H 732.734 6.12902 2.92451 0
M  V30 7589 H 730.68 4.65802 4.61914 0
M  V30 7590 H 730.597 6.3228 4.14437 0
M  V30 7591 H 731.865 5.79714 5.21106 0
M  V30 7592 N 736.094 -0.359525 1.53444 0
M  V30 7593 C 737.341 -1.10152 1.6992 0
M  V30 7594 C 737.669 -1.89125 0.4541 0
M  V30 7595 O 736.924 -1.87396 -0.564023 0
M  V30 7596 C 737.223 -2.08287 2.90433 0
M  V30 7597 C 736.889 -1.45749 4.26694 0
M  V30 7598 C 735.551 -1.28421 4.63747 0
M  V30 7599 C 737.903 -1.00557 5.11408 0
M  V30 7600 C 735.231 -0.644951 5.83144 0
M  V30 7601 C 737.583 -0.380288 6.31456 0
M  V30 7602 C 736.247 -0.194557 6.67216 0
M  V30 7603 H 735.517 -0.403076 0.621781 0
M  V30 7604 H 738.164 -0.382612 1.87639 0
M  V30 7605 H 736.469 -2.86503 2.67251 0
M  V30 7606 H 738.166 -2.65662 3.00374 0
M  V30 7607 H 734.756 -1.6023 3.97523 0
M  V30 7608 H 738.94 -1.12735 4.83326 0
M  V30 7609 H 734.196 -0.48952 6.09437 0
M  V30 7610 H 738.37 -0.0219455 6.96397 0
M  V30 7611 H 735.997 0.30285 7.59597 0
M  V30 7612 N 737.572 -1.44907 -0.619662 0
M  V30 7613 C 738.504 -1.48652 -1.74457 0
M  V30 7614 C 739.517 -0.378596 -1.58337 0
M  V30 7615 O 740.706 -0.644987 -1.6644 0
M  V30 7616 C 737.806 -1.31568 -3.12319 0
M  V30 7617 C 736.979 -2.55816 -3.54792 0
M  V30 7618 C 736.038 -2.33465 -4.71573 0
M  V30 7619 O 735.064 -3.07015 -4.79302 0
M  V30 7620 N 736.266 -1.37254 -5.6404 0
M  V30 7621 H 739.031 -2.45632 -1.71712 0
M  V30 7622 H 736.592 -1.40492 -0.804582 0
M  V30 7623 H 738.584 -1.14445 -3.88181 0
M  V30 7624 H 737.154 -0.429095 -3.09641 0
M  V30 7625 H 736.374 -2.88137 -2.69018 0
M  V30 7626 H 737.662 -3.38431 -3.79924 0
M  V30 7627 H 737.06 -0.765309 -5.60499 0
M  V30 7628 H 735.617 -1.26106 -6.39485 0
M  V30 7629 N 739.05 0.861098 -1.31996 0
M  V30 7630 C 739.98 1.98482 -1.22993 0
M  V30 7631 C 740.961 1.6971 -0.115168 0
M  V30 7632 O 742.146 1.91849 -0.30126 0
M  V30 7633 C 739.276 3.34179 -0.945615 0
M  V30 7634 C 738.23 3.77284 -2.02091 0
M  V30 7635 C 737.556 5.1054 -1.58912 0
M  V30 7636 C 738.856 3.93439 -3.43515 0
M  V30 7637 H 740.55 2.06271 -2.17008 0
M  V30 7638 H 738.096 0.991043 -1.04472 0
M  V30 7639 H 740.049 4.12338 -0.869206 0
M  V30 7640 H 738.773 3.26586 0.0301849 0
M  V30 7641 H 737.432 3.01371 -2.08737 0
M  V30 7642 H 737.08 4.99397 -0.600942 0
M  V30 7643 H 736.78 5.40352 -2.30854 0
M  V30 7644 H 738.304 5.91199 -1.52696 0
M  V30 7645 H 739.718 4.6197 -3.39495 0
M  V30 7646 H 738.115 4.34661 -4.13751 0
M  V30 7647 H 739.185 2.96548 -3.8365 0
M  V30 7648 N 740.528 1.15101 1.07655 0
M  V30 7649 C 741.753 0.948177 1.84457 0
M  V30 7650 C 742.178 -0.498432 1.81376 0
M  V30 7651 O 741.536 -1.35509 1.20445 0
M  V30 7652 C 741.584 1.46318 3.29581 0
M  V30 7653 O 740.688 0.660342 4.07079 0
M  V30 7654 H 740.029 0.338428 0.571281 0
M  V30 7655 H 742.559 1.5301 1.35828 0
M  V30 7656 H 742.569 1.47468 3.80417 0
M  V30 7657 H 741.244 2.51635 3.31138 0
M  V30 7658 H 739.821 0.718216 3.65918 0
M  V30 7659 N 742.006 -1.2595 0.947325 0
M  V30 7660 C 743.255 -1.92759 0.593887 0
M  V30 7661 C 743.568 -1.75083 -0.872093 0
M  V30 7662 O 744.774 -2.36401 -1.33518 0
M  V30 7663 C 743.23 -3.45395 1.01144 0
M  V30 7664 C 742.838 -3.71795 2.49946 0
M  V30 7665 C 744.582 -4.18173 0.730185 0
M  V30 7666 C 742.489 -5.17901 2.85539 0
M  V30 7667 H 741.419 -0.721676 0.218403 0
M  V30 7668 H 744.07 -1.4293 1.15079 0
M  V30 7669 H 742.452 -3.94143 0.383007 0
M  V30 7670 H 743.626 -3.33728 3.17746 0
M  V30 7671 H 741.941 -3.12263 2.75465 0
M  V30 7672 H 744.538 -5.25784 0.972367 0
M  V30 7673 H 744.881 -4.14964 -0.333223 0
M  V30 7674 H 745.414 -3.75309 1.31862 0
M  V30 7675 H 742.153 -5.26216 3.90867 0
M  V30 7676 H 741.673 -5.57042 2.22406 0
M  V30 7677 H 743.352 -5.8596 2.74336 0
M  V30 7678 N 743.484 -0.715051 -1.40445 0
M  V30 7679 C 744.434 -0.038591 -2.27967 0
M  V30 7680 C 745.418 0.733099 -1.43229 0
M  V30 7681 O 746.61 0.605388 -1.66325 0
M  V30 7682 C 743.739 0.882801 -3.31755 0
M  V30 7683 C 742.825 0.106325 -4.23967 0
M  V30 7684 N 743.216 -0.910143 -4.97544 0
M  V30 7685 C 741.514 0.33896 -4.4471 0
M  V30 7686 C 742.215 -1.37665 -5.65175 0
M  V30 7687 N 741.191 -0.698905 -5.39088 0
M  V30 7688 H 744.993 -0.81765 -2.82297 0
M  V30 7689 H 742.507 -0.547591 -1.5289 0
M  V30 7690 H 744.504 1.38273 -3.93302 0
M  V30 7691 H 743.164 1.66124 -2.78985 0
M  V30 7692 H 744.175 -1.29097 -5.01552 0
M  V30 7693 H 740.852 1.09377 -4.02918 0
M  V30 7694 H 742.242 -2.22122 -6.34123 0
M  V30 7695 N 744.962 1.50701 -0.461195 0
M  V30 7696 C 746.19 2.06681 0.0951756 0
M  V30 7697 C 746.605 1.32615 1.34382 0
M  V30 7698 O 745.962 0.392531 1.78229 0
M  V30 7699 C 746.013 3.59354 0.393316 0
M  V30 7700 O 745.734 4.30626 -0.805797 0
M  V30 7701 C 747.235 4.31926 0.997744 0
M  V30 7702 H 744.455 0.670995 -0.00267259 0
M  V30 7703 H 746.999 1.93991 -0.647137 0
M  V30 7704 H 745.154 3.7188 1.08555 0
M  V30 7705 H 745.568 5.21667 -0.544409 0
M  V30 7706 H 747.042 5.39756 1.15619 0
M  V30 7707 H 747.519 3.91772 1.98523 0
M  V30 7708 H 748.125 4.23905 0.344188 0
M  V30 7709 N 746.441 0.193421 1.56409 0
M  V30 7710 C 747.371 -0.723334 2.22014 0
M  V30 7711 C 748.352 -1.22254 1.1827 0
M  V30 7712 O 749.537 -1.27168 1.46771 0
M  V30 7713 C 746.667 -1.94366 2.87818 0
M  V30 7714 C 745.621 -1.57943 3.97791 0
M  V30 7715 C 744.947 -2.87623 4.50752 0
M  V30 7716 C 746.247 -0.790639 5.16281 0
M  V30 7717 H 747.941 -0.176426 2.9888 0
M  V30 7718 H 745.487 -0.0834166 1.43758 0
M  V30 7719 H 747.44 -2.5902 3.32396 0
M  V30 7720 H 746.164 -2.51507 2.08355 0
M  V30 7721 H 744.823 -0.956482 3.53903 0
M  V30 7722 H 744.471 -3.4285 3.68053 0
M  V30 7723 H 744.171 -2.63998 5.24956 0
M  V30 7724 H 745.695 -3.53268 4.9803 0
M  V30 7725 H 747.109 -1.34024 5.57414 0
M  V30 7726 H 745.506 -0.65258 5.96541 0
M  V30 7727 H 746.576 0.208633 4.84451 0
M  V30 7728 N 747.919 -1.57396 -0.0801906 0
M  V30 7729 C 748.829 -2.06451 -1.11423 0
M  V30 7730 C 749.845 -0.992352 -1.42928 0
M  V30 7731 O 751.021 -1.30651 -1.53272 0
M  V30 7732 C 748.086 -2.49164 -2.41077 0
M  V30 7733 C 747.147 -3.70641 -2.16619 0
M  V30 7734 C 746.38 -4.11307 -3.40092 0
M  V30 7735 O 746.603 -3.51922 -4.48895 0
M  V30 7736 O 745.537 -5.04157 -3.288 0
M  V30 7737 H 749.363 -2.94857 -0.727519 0
M  V30 7738 H 746.948 -1.46484 -0.293743 0
M  V30 7739 H 748.83 -2.77196 -3.17396 0
M  V30 7740 H 747.505 -1.6389 -2.79145 0
M  V30 7741 H 746.412 -3.47703 -1.38033 0
M  V30 7742 H 747.745 -4.5674 -1.83437 0
M  V30 7743 N 749.397 0.351382 -1.53633 0
M  V30 7744 C 750.674 1.10903 -1.6112 0
M  V30 7745 C 751.054 2.06725 -0.427556 0
M  V30 7746 O 750.402 2.20992 0.580916 0
M  V30 7747 C 750.612 1.83561 -2.96827 0
M  V30 7748 C 751.96 2.37587 -3.51906 0
M  V30 7749 O 752.984 1.93669 -2.9895 0
M  V30 7750 O 751.843 3.17913 -4.44515 0
M  V30 7751 H 748.937 0.509558 -0.651368 0
M  V30 7752 H 751.483 0.353504 -1.65977 0
M  V30 7753 H 750.255 1.1371 -3.74414 0
M  V30 7754 H 749.878 2.6599 -2.95525 0
M  V30 7755 N 750.875 1.45233 0.611969 0
M  V30 7756 C 752.286 1.4354 1.19387 0
M  V30 7757 C 752.637 0.160713 1.95541 0
M  V30 7758 O 751.762 -0.737954 2.03429 0
M  V30 7759 C 752.357 2.60045 2.17169 0
M  V30 7760 C 750.916 2.61486 2.70744 0
M  V30 7761 C 750.063 2.35708 1.46072 0
M  V30 7762 H 753.014 1.53536 0.401529 0
M  V30 7763 H 753.035 2.33893 3.00124 0
M  V30 7764 H 752.547 3.52803 1.61714 0
M  V30 7765 H 750.648 1.72721 3.30149 0
M  V30 7766 H 750.761 3.60572 3.15476 0
M  V30 7767 H 749.125 1.85178 1.74875 0
M  V30 7768 H 749.908 3.30606 0.924922 0
M  V30 7769 N 752.353 -0.854086 1.3245 0
M  V30 7770 C 753.769 -1.14238 1.11453 0
M  V30 7771 C 753.969 -2.01228 -0.10461 0
M  V30 7772 O 753.025 -2.39845 -0.789339 0
M  V30 7773 C 754.338 -1.81916 2.39431 0
M  V30 7774 C 755.886 -1.94549 2.45193 0
M  V30 7775 C 756.361 -2.65642 3.73093 0
M  V30 7776 N 757.852 -2.73167 3.74078 0
M  V30 7777 C 758.587 -3.28828 4.69744 0
M  V30 7778 N 758.083 -3.85295 5.75778 0
M  V30 7779 N 759.876 -3.26936 4.57241 0
M  V30 7780 H 752.027 -0.274786 2.10615 0
M  V30 7781 H 754.29 -0.184375 0.929898 0
M  V30 7782 H 753.996 -1.25452 3.28565 0
M  V30 7783 H 753.87 -2.82068 2.50434 0
M  V30 7784 H 756.257 -2.50172 1.56518 0
M  V30 7785 H 756.338 -0.933914 2.38142 0
M  V30 7786 H 755.982 -2.10683 4.62142 0
M  V30 7787 H 755.912 -3.6724 3.77415 0
M  V30 7788 H 758.403 -2.33108 2.97438 0
M  V30 7789 H 758.716 -4.25925 6.44832 0
M  V30 7790 H 757.061 -3.83625 5.79531 0
M  V30 7791 H 760.252 -2.8207 3.7357 0
M  V30 7792 H 760.425 -3.70014 5.31971 0
M  V30 7793 N 753.831 -1.1567 -1.07043 0
M  V30 7794 C 755.108 -0.843948 -1.76456 0
M  V30 7795 C 755.488 0.659806 -2.00524 0
M  V30 7796 O 754.836 1.60518 -1.62623 0
M  V30 7797 C 755.046 -1.65822 -3.0709 0
M  V30 7798 C 756.394 -1.8664 -3.8138 0
M  V30 7799 O 757.418 -1.62624 -3.1691 0
M  V30 7800 O 756.277 -2.26884 -4.97178 0
M  V30 7801 H 753.371 -0.310677 -0.766426 0
M  V30 7802 H 755.917 -1.26266 -1.1338 0
M  V30 7803 H 754.689 -2.67902 -2.85209 0
M  V30 7804 H 754.312 -1.23605 -3.77899 0
M  V30 7805 N 755.309 1.25446 -0.953992 0
M  V30 7806 C 756.72 1.75047 -0.649255 0
M  V30 7807 C 757.071 1.77527 0.835385 0
M  V30 7808 O 756.196 1.39569 1.65377 0
M  V30 7809 C 756.791 3.17889 -1.17183 0
M  V30 7810 C 755.35 3.65052 -0.917267 0
M  V30 7811 C 754.497 2.44124 -1.31525 0
M  V30 7812 H 757.448 1.11342 -1.13087 0
M  V30 7813 H 757.469 3.76768 -0.531616 0
M  V30 7814 H 756.981 3.16052 -2.25239 0
M  V30 7815 H 755.082 3.72305 0.148354 0
M  V30 7816 H 755.195 4.53222 -1.55328 0
M  V30 7817 H 753.559 2.43906 -0.733624 0
M  V30 7818 H 754.342 2.44979 -2.405 0
M  V30 7819 N 756.787 0.722489 1.40064 0
M  V30 7820 C 758.203 0.396758 1.5459 0
M  V30 7821 C 758.403 -1.09375 1.69232 0
M  V30 7822 O 757.459 -1.87984 1.68578 0
M  V30 7823 C 758.772 1.16885 2.77053 0
M  V30 7824 C 760.32 1.15583 2.90877 0
M  V30 7825 C 760.795 1.91023 4.16262 0
M  V30 7826 N 762.286 1.88126 4.23276 0
M  V30 7827 C 763.021 2.43315 5.19216 0
M  V30 7828 N 762.517 3.07089 6.21022 0
M  V30 7829 N 764.31 2.33418 5.11344 0
M  V30 7830 H 756.461 1.68887 1.28806 0
M  V30 7831 H 758.724 0.714231 0.62336 0
M  V30 7832 H 758.43 2.22301 2.72534 0
M  V30 7833 H 758.304 0.765011 3.69361 0
M  V30 7834 H 760.691 0.10984 2.94896 0
M  V30 7835 H 760.772 1.59895 1.99668 0
M  V30 7836 H 760.416 2.95616 4.13006 0
M  V30 7837 H 760.346 1.44126 5.06493 0
M  V30 7838 H 762.837 1.41654 3.50346 0
M  V30 7839 H 763.15 3.467 6.90666 0
M  V30 7840 H 761.495 3.11175 6.21446 0
M  V30 7841 H 764.686 1.83248 4.30741 0
M  V30 7842 H 764.859 2.7673 5.85939 0
M  V30 7843 N 758.265 -1.50454 0.469181 0
M  V30 7844 C 759.215 -2.25381 -0.344582 0
M  V30 7845 C 760.199 -1.28892 -0.963098 0
M  V30 7846 O 761.391 -1.53805 -0.875964 0
M  V30 7847 C 758.52 -3.12232 -1.4271 0
M  V30 7848 C 757.606 -4.16168 -0.816411 0
M  V30 7849 N 757.997 -5.05762 0.0621424 0
M  V30 7850 C 756.295 -4.32712 -1.08056 0
M  V30 7851 C 756.996 -5.80264 0.408519 0
M  V30 7852 N 755.972 -5.43171 -0.215827 0
M  V30 7853 H 759.774 -2.92016 0.332237 0
M  V30 7854 H 757.288 -1.59911 0.283209 0
M  V30 7855 H 759.285 -3.64514 -2.02324 0
M  V30 7856 H 757.945 -2.47145 -2.10593 0
M  V30 7857 H 758.956 -5.16105 0.430841 0
M  V30 7858 H 755.633 -3.78844 -1.75452 0
M  V30 7859 H 757.023 -6.62408 1.12539 0
M  V30 7860 N 759.743 -0.201713 -1.56304 0
M  V30 7861 C 760.673 0.71155 -2.22394 0
M  V30 7862 C 761.654 1.21625 -1.18917 0
M  V30 7863 O 762.839 1.26388 -1.47444 0
M  V30 7864 C 759.969 1.92837 -2.88845 0
M  V30 7865 C 758.923 1.55831 -3.98623 0
M  V30 7866 C 758.249 2.85228 -4.52271 0
M  V30 7867 C 759.549 0.763249 -5.16693 0
M  V30 7868 H 761.243 0.160573 -2.98969 0
M  V30 7869 H 758.789 0.0757916 -1.438 0
M  V30 7870 H 760.742 2.57253 -3.33764 0
M  V30 7871 H 759.466 2.50398 -2.09686 0
M  V30 7872 H 758.125 0.9377 -3.54405 0
M  V30 7873 H 757.773 3.40893 -3.69866 0
M  V30 7874 H 757.473 2.6121 -5.26349 0
M  V30 7875 H 758.997 3.50622 -4.99897 0
M  V30 7876 H 760.411 1.31066 -5.58117 0
M  V30 7877 H 758.808 0.620935 -5.96879 0
M  V30 7878 H 759.878 -0.234322 -4.84334 0
M  V30 7879 N 761.222 1.57436 0.0718424 0
M  V30 7880 C 762.152 2.06724 1.08571 0
M  V30 7881 C 763.133 0.960731 1.40371 0
M  V30 7882 O 764.318 1.23345 1.49999 0
M  V30 7883 C 761.448 2.51112 2.39916 0
M  V30 7884 C 760.402 3.65639 2.22469 0
M  V30 7885 C 759.728 3.96082 3.59198 0
M  V30 7886 C 761.028 4.95687 1.64596 0
M  V30 7887 H 762.722 2.91679 0.675569 0
M  V30 7888 H 760.268 1.40319 0.32352 0
M  V30 7889 H 762.221 2.84206 3.11135 0
M  V30 7890 H 760.945 1.63186 2.8291 0
M  V30 7891 H 759.604 3.32828 1.53691 0
M  V30 7892 H 759.252 3.05287 3.99761 0
M  V30 7893 H 758.952 4.73199 3.48362 0
M  V30 7894 H 760.476 4.31672 4.31847 0
M  V30 7895 H 761.89 5.27011 2.25681 0
M  V30 7896 H 760.287 5.77126 1.64457 0
M  V30 7897 H 761.357 4.8108 0.60744 0
M  V30 7898 N 762.7 -0.34323 1.53817 0
M  V30 7899 C 763.946 -1.08504 1.71332 0
M  V30 7900 C 764.279 -1.88294 0.475285 0
M  V30 7901 O 763.554 -1.87205 -0.527688 0
M  V30 7902 C 763.837 -2.02597 2.97702 0
M  V30 7903 C 763.69 -1.26268 4.31713 0
M  V30 7904 C 765.009 -3.0241 3.19744 0
M  V30 7905 H 762.128 -0.393072 0.623429 0
M  V30 7906 H 764.77 -0.363579 1.86489 0
M  V30 7907 H 762.92 -2.64118 2.8491 0
M  V30 7908 H 764.592 -0.673594 4.56356 0
M  V30 7909 H 762.835 -0.564696 4.30109 0
M  V30 7910 H 763.506 -1.95253 5.16314 0
M  V30 7911 H 765.982 -2.51004 3.31868 0
M  V30 7912 H 764.858 -3.65449 4.09558 0
M  V30 7913 H 765.119 -3.73806 2.36054 0
M  V30 7914 N 764.178 -1.45556 -0.604258 0
M  V30 7915 C 765.111 -1.48975 -1.72863 0
M  V30 7916 C 766.089 -0.345803 -1.5888 0
M  V30 7917 O 767.273 -0.546796 -1.80395 0
M  V30 7918 C 764.4 -1.34794 -3.10722 0
M  V30 7919 C 763.446 -2.53096 -3.43285 0
M  V30 7920 S 764.279 -4.15551 -3.37754 0
M  V30 7921 C 765.435 -4.03842 -4.78187 0
M  V30 7922 H 765.668 -2.44108 -1.69701 0
M  V30 7923 H 763.201 -1.33179 -0.781194 0
M  V30 7924 H 765.159 -1.273 -3.90263 0
M  V30 7925 H 763.82 -0.411254 -3.11396 0
M  V30 7926 H 763.013 -2.39109 -4.4367 0
M  V30 7927 H 762.615 -2.57469 -2.71267 0
M  V30 7928 H 764.907 -3.69191 -5.6807 0
M  V30 7929 H 765.85 -5.0415 -4.97231 0
M  V30 7930 H 766.258 -3.35443 -4.54025 0
M  V30 7931 N 765.656 0.84705 -1.32902 0
M  V30 7932 C 766.603 1.95624 -1.22473 0
M  V30 7933 C 767.573 1.65767 -0.105178 0
M  V30 7934 O 768.758 1.88704 -0.282042 0
M  V30 7935 C 765.898 3.31434 -0.961542 0
M  V30 7936 C 765.011 3.73741 -2.1666 0
M  V30 7937 C 764.146 4.98379 -1.83825 0
M  V30 7938 C 763.185 5.33199 -3.00609 0
M  V30 7939 N 762.322 6.49014 -2.67816 0
M  V30 7940 H 767.162 2.03875 -2.17345 0
M  V30 7941 H 764.699 0.997764 -1.08088 0
M  V30 7942 H 766.657 4.09663 -0.789411 0
M  V30 7943 H 765.287 3.22762 -0.0495938 0
M  V30 7944 H 764.339 2.91102 -2.44875 0
M  V30 7945 H 765.651 3.95462 -3.03993 0
M  V30 7946 H 764.805 5.84336 -1.63208 0
M  V30 7947 H 763.544 4.78611 -0.937172 0
M  V30 7948 H 762.549 4.4575 -3.21849 0
M  V30 7949 H 763.774 5.5492 -3.9146 0
M  V30 7950 H 761.72 6.30748 -1.80258 0
M  V30 7951 H 761.637 6.7079 -3.48679 0
M  V30 7952 H 762.905 7.38103 -2.50647 0
M  V30 7953 N 767.134 1.16236 1.06428 0
M  V30 7954 C 768.382 0.941171 1.78847 0
M  V30 7955 C 768.703 -0.53248 1.87589 0
M  V30 7956 O 767.973 -1.38686 1.38358 0
M  V30 7957 H 766.553 0.345228 0.66244 0
M  V30 7958 H 769.215 1.46479 1.28569 0
M  V30 7959 H 768.311 1.35871 2.80972 0
M  V30 7960 N 768.612 -1.24939 0.960631 0
M  V30 7961 C 769.575 -2.239 0.49006 0
M  V30 7962 C 770.575 -1.55497 -0.409535 0
M  V30 7963 O 771.765 -1.72978 -0.205984 0
M  V30 7964 C 768.897 -3.39654 -0.291193 0
M  V30 7965 H 770.09 -2.67044 1.36482 0
M  V30 7966 H 767.643 -1.37429 0.744505 0
M  V30 7967 H 768.378 -3.01939 -1.18336 0
M  V30 7968 H 768.163 -3.90496 0.354276 0
M  V30 7969 H 769.653 -4.13125 -0.609693 0
M  V30 7970 N 770.09 -0.729906 -1.39679 0
M  V30 7971 C 771.501 -0.346241 -1.83461 0
M  V30 7972 C 771.852 1.1215 -1.60987 0
M  V30 7973 O 770.977 1.86456 -1.09832 0
M  V30 7974 C 771.572 -0.621656 -3.33048 0
M  V30 7975 C 770.131 -0.291543 -3.75269 0
M  V30 7976 C 769.278 -0.886844 -2.62736 0
M  V30 7977 H 772.229 -0.927949 -1.28743 0
M  V30 7978 H 772.25 0.108301 -3.80346 0
M  V30 7979 H 771.762 -1.68996 -3.49373 0
M  V30 7980 H 769.863 0.771133 -3.64533 0
M  V30 7981 H 769.976 -0.770544 -4.72863 0
M  V30 7982 H 768.34 -0.313839 -2.52759 0
M  V30 7983 H 769.123 -1.95971 -2.81869 0
M  V30 7984 N 771.568 1.50203 -0.477153 0
M  V30 7985 C 772.478 2.32421 0.319027 0
M  V30 7986 C 773.494 1.43075 0.990233 0
M  V30 7987 O 774.67 1.76123 0.976873 0
M  V30 7988 C 771.735 3.17909 1.38328 0
M  V30 7989 C 770.796 4.23082 0.728036 0
M  V30 7990 C 770.029 5.04484 1.74158 0
M  V30 7991 O 770.252 4.8705 2.96881 0
M  V30 7992 O 769.186 5.8747 1.31006 0
M  V30 7993 H 773.012 3.01638 -0.353281 0
M  V30 7994 H 770.597 1.47478 -0.238891 0
M  V30 7995 H 772.479 3.70937 1.9996 0
M  V30 7996 H 771.154 2.51413 2.03895 0
M  V30 7997 H 770.061 3.7403 0.07261 0
M  V30 7998 H 771.394 4.92065 0.115216 0
M  V30 7999 N 773.046 0.209999 1.56195 0
M  V30 8000 C 774.462 -0.145598 1.58934 0
M  V30 8001 C 774.662 -1.59868 1.22656 0
M  V30 8002 O 773.718 -2.33689 0.956336 0
M  V30 8003 C 775.031 0.170243 3.00218 0
M  V30 8004 C 776.579 0.111548 3.12801 0
M  V30 8005 C 777.054 0.400904 4.56242 0
M  V30 8006 N 778.545 0.350058 4.61875 0
M  V30 8007 C 779.28 0.547598 5.70779 0
M  V30 8008 N 778.776 0.806291 6.88092 0
M  V30 8009 N 780.569 0.480827 5.6004 0
M  V30 8010 H 772.72 1.15804 1.78054 0
M  V30 8011 H 774.983 0.463326 0.827063 0
M  V30 8012 H 774.689 1.17833 3.31373 0
M  V30 8013 H 774.563 -0.520208 3.73596 0
M  V30 8014 H 776.95 -0.887162 2.81449 0
M  V30 8015 H 777.031 0.835302 2.41777 0
M  V30 8016 H 776.675 1.397 4.8831 0
M  V30 8017 H 776.605 -0.34391 5.25476 0
M  V30 8018 H 779.096 0.157334 3.77572 0
M  V30 8019 H 779.409 0.945433 7.66995 0
M  V30 8020 H 777.754 0.843355 6.89864 0
M  V30 8021 H 780.945 0.279037 4.67268 0
M  V30 8022 H 781.118 0.638189 6.4485 0
M  V30 8023 N 774.524 -1.57472 -0.0634922 0
M  V30 8024 C 775.77 -1.87932 -0.762194 0
M  V30 8025 C 776.103 -0.803377 -1.76804 0
M  V30 8026 O 775.378 0.185468 -1.93614 0
M  V30 8027 C 775.661 -3.29053 -1.46275 0
M  V30 8028 C 775.514 -4.47309 -0.472755 0
M  V30 8029 C 776.833 -3.68537 -2.40558 0
M  V30 8030 H 773.952 -0.683521 -0.275624 0
M  V30 8031 H 776.594 -1.89983 -0.0252651 0
M  V30 8032 H 774.744 -3.27435 -2.0909 0
M  V30 8033 H 776.416 -4.61053 0.150828 0
M  V30 8034 H 774.659 -4.33286 0.211187 0
M  V30 8035 H 775.33 -5.42853 -1.00072 0
M  V30 8036 H 777.806 -3.71302 -1.87814 0
M  V30 8037 H 776.682 -4.68152 -2.86574 0
M  V30 8038 H 776.943 -2.98917 -3.25731 0
M  V30 8039 N 776.003 0.335068 -1.53997 0
M  V30 8040 C 776.933 1.41727 -1.85568 0
M  V30 8041 C 777.914 1.54505 -0.7115 0
M  V30 8042 O 779.099 1.68573 -0.964191 0
M  V30 8043 C 776.229 2.7866 -2.07282 0
M  V30 8044 C 775.183 2.80682 -3.23112 0
M  V30 8045 C 774.509 4.20581 -3.30175 0
M  V30 8046 C 775.809 2.45458 -4.61029 0
M  V30 8047 H 777.503 1.15555 -2.76202 0
M  V30 8048 H 775.049 0.554445 -1.32898 0
M  V30 8049 H 777.002 3.54423 -2.27952 0
M  V30 8050 H 775.726 3.06286 -1.13387 0
M  V30 8051 H 774.385 2.07373 -3.02311 0
M  V30 8052 H 774.033 4.4533 -2.33859 0
M  V30 8053 H 773.733 4.22843 -4.08016 0
M  V30 8054 H 775.257 4.98174 -3.53066 0
M  V30 8055 H 776.671 3.10934 -4.81656 0
M  V30 8056 H 775.068 2.5899 -5.41336 0
M  V30 8057 H 776.138 1.40628 -4.6406 0
M  V30 8058 N 777.481 1.45874 0.596531 0
M  V30 8059 C 778.391 1.57947 1.73464 0
M  V30 8060 C 779.407 0.463461 1.67714 0
M  V30 8061 O 780.583 0.725685 1.87872 0
M  V30 8062 C 777.648 1.55348 3.09948 0
M  V30 8063 C 776.709 2.78074 3.27068 0
M  V30 8064 C 775.942 2.75589 4.57041 0
M  V30 8065 O 776.165 1.83545 5.40063 0
M  V30 8066 O 775.099 3.66945 4.77111 0
M  V30 8067 H 778.925 2.54169 1.66228 0
M  V30 8068 H 776.51 1.2851 0.76194 0
M  V30 8069 H 778.392 1.56545 3.91244 0
M  V30 8070 H 777.067 0.622811 3.17652 0
M  V30 8071 H 775.974 2.82435 2.45319 0
M  V30 8072 H 777.307 3.70303 3.24248 0
M  V30 8073 N 778.959 -0.83999 1.33349 0
M  V30 8074 C 780.375 -1.13049 1.12659 0
M  V30 8075 C 780.575 -2.01328 -0.0832613 0
M  V30 8076 O 779.631 -2.40669 -0.763856 0
M  V30 8077 C 780.944 -1.79366 2.41347 0
M  V30 8078 C 782.492 -1.91937 2.47243 0
M  V30 8079 C 782.967 -2.6167 3.75889 0
M  V30 8080 N 784.458 -2.69184 3.76954 0
M  V30 8081 C 785.193 -3.23827 4.73206 0
M  V30 8082 N 784.689 -3.79166 5.79832 0
M  V30 8083 N 786.482 -3.22068 4.60683 0
M  V30 8084 H 778.633 -0.252432 2.10895 0
M  V30 8085 H 780.896 -0.174501 0.931801 0
M  V30 8086 H 780.602 -1.2196 3.29877 0
M  V30 8087 H 780.476 -2.79396 2.53412 0
M  V30 8088 H 782.863 -2.48498 1.59163 0
M  V30 8089 H 782.944 -0.908604 2.39119 0
M  V30 8090 H 782.588 -2.05769 4.64351 0
M  V30 8091 H 782.518 -3.63217 3.81289 0
M  V30 8092 H 785.009 -2.2994 2.99893 0
M  V30 8093 H 785.322 -4.19061 6.49313 0
M  V30 8094 H 783.667 -3.77457 5.83568 0
M  V30 8095 H 786.858 -2.78092 3.7654 0
M  V30 8096 H 787.031 -3.64351 5.35866 0
M  V30 8097 N 780.437 -1.16799 -1.0581 0
M  V30 8098 C 781.677 -0.963264 -1.80279 0
M  V30 8099 C 782.041 0.499671 -1.85384 0
M  V30 8100 O 783.242 0.823264 -2.55882 0
M  V30 8101 C 781.513 -1.57938 -3.20609 0
M  V30 8102 S 783.072 -1.51997 -4.11634 0
M  V30 8103 H 779.89 -0.346302 -0.620964 0
M  V30 8104 H 782.492 -1.48632 -1.26999 0
M  V30 8105 H 781.196 -2.63672 -3.14492 0
M  V30 8106 H 780.727 -1.05586 -3.78966 0
M  V30 8107 H 782.742 -0.523625 -4.93429 0
M  V30 8108 N 781.915 1.24427 -0.967243 0
M  V30 8109 C 783.14 1.9708 -0.646069 0
M  V30 8110 C 783.565 1.71272 0.777665 0
M  V30 8111 O 782.923 0.976179 1.52776 0
M  V30 8112 C 782.971 3.48501 -0.926266 0
M  V30 8113 O 782.075 4.12398 -0.0114653 0
M  V30 8114 H 781.416 0.617423 -0.244304 0
M  V30 8115 H 783.946 1.58215 -1.29727 0
M  V30 8116 H 783.956 3.98885 -0.857619 0
M  V30 8117 H 782.631 3.66613 -1.96386 0
M  V30 8118 H 781.208 3.72661 -0.133396 0
M  V30 8119 N 783.393 0.737304 1.3929 0
M  V30 8120 C 784.618 0.295237 2.05288 0
M  V30 8121 C 785.043 -1.06235 1.55228 0
M  V30 8122 O 784.401 -1.67365 0.697043 0
M  V30 8123 C 784.449 0.309146 3.59272 0
M  V30 8124 O 783.553 -0.702437 4.06374 0
M  V30 8125 H 782.894 0.133762 0.650387 0
M  V30 8126 H 785.424 1.00387 1.78279 0
M  V30 8127 H 785.434 0.154336 4.07708 0
M  V30 8128 H 784.109 1.29974 3.95069 0
M  V30 8129 H 782.686 -0.513574 3.69346 0
M  V30 8130 N 784.871 -1.49948 0.485112 0
M  V30 8131 C 786.12 -2.01589 -0.066765 0
M  V30 8132 C 786.433 -1.371 -1.39509 0
M  V30 8133 O 787.639 -1.79978 -2.03274 0
M  V30 8134 C 786.095 -3.59501 -0.169476 0
M  V30 8135 C 785.703 -4.32955 1.15126 0
M  V30 8136 C 787.447 -4.19138 -0.672564 0
M  V30 8137 C 785.354 -5.82684 1.01158 0
M  V30 8138 H 784.284 -0.753453 -0.0287259 0
M  V30 8139 H 786.935 -1.72632 0.622132 0
M  V30 8140 H 785.317 -3.85106 -0.922471 0
M  V30 8141 H 786.491 -4.19064 1.9163 0
M  V30 8142 H 784.806 -3.84991 1.58654 0
M  V30 8143 H 787.403 -5.28767 -0.794325 0
M  V30 8144 H 787.746 -3.81447 -1.66745 0
M  V30 8145 H 788.279 -3.97793 0.0234415 0
M  V30 8146 H 785.018 -6.24873 1.98025 0
M  V30 8147 H 784.538 -5.99112 0.287151 0
M  V30 8148 H 786.217 -6.43376 0.683847 0
M  V30 8149 N 786.349 -0.21828 -1.56081 0
M  V30 8150 C 787.279 0.687922 -2.23136 0
M  V30 8151 C 788.26 1.20357 -1.202 0
M  V30 8152 O 789.445 1.24817 -1.48776 0
M  V30 8153 C 786.575 1.89762 -2.90874 0
M  V30 8154 C 785.529 1.51595 -4.00254 0
M  V30 8155 C 784.855 2.80415 -4.55271 0
M  V30 8156 C 786.155 0.708404 -5.17474 0
M  V30 8157 H 787.849 0.128854 -2.99123 0
M  V30 8158 H 785.395 0.0605354 -1.43873 0
M  V30 8159 H 787.348 2.53699 -3.36474 0
M  V30 8160 H 786.072 2.4816 -2.1233 0
M  V30 8161 H 784.731 0.900058 -3.55379 0
M  V30 8162 H 784.379 3.36951 -3.73461 0
M  V30 8163 H 784.079 2.55613 -5.2909 0
M  V30 8164 H 785.603 3.453 -5.03587 0
M  V30 8165 H 787.017 1.2514 -5.59476 0
M  V30 8166 H 785.414 0.557593 -5.97504 0
M  V30 8167 H 786.484 -0.285679 -4.84058 0
M  V30 8168 N 787.827 1.57504 0.0551401 0
M  V30 8169 C 789.076 1.87237 0.750009 0
M  V30 8170 C 789.389 0.813268 1.77891 0
M  V30 8171 O 790.595 0.99898 2.52453 0
M  V30 8172 C 789.051 3.32187 1.38491 0
M  V30 8173 C 788.659 4.46267 0.393707 0
M  V30 8174 C 790.403 3.71101 2.06117 0
M  V30 8175 C 788.31 5.82265 1.03547 0
M  V30 8176 H 787.24 0.698524 0.283866 0
M  V30 8177 H 789.891 1.835 0.00365997 0
M  V30 8178 H 788.273 3.30588 2.18008 0
M  V30 8179 H 789.447 4.59289 -0.372865 0
M  V30 8180 H 787.762 4.16015 -0.17902 0
M  V30 8181 H 790.359 4.70012 2.54937 0
M  V30 8182 H 790.702 3.01751 2.86796 0
M  V30 8183 H 791.235 3.74762 1.33409 0
M  V30 8184 H 787.974 6.54949 0.268644 0
M  V30 8185 H 787.494 5.73012 1.7725 0
M  V30 8186 H 789.173 6.28148 1.55047 0
M  V30 8187 N 789.305 -0.326896 1.54172 0
M  V30 8188 C 790.252 -1.40216 1.83325 0
M  V30 8189 C 791.222 -1.51538 0.680107 0
M  V30 8190 O 792.407 -1.66811 0.926206 0
M  V30 8191 C 789.547 -2.76626 2.0633 0
M  V30 8192 C 788.66 -2.73963 3.34019 0
M  V30 8193 C 787.795 -4.02198 3.47002 0
M  V30 8194 C 786.834 -3.93828 4.68578 0
M  V30 8195 N 785.971 -5.13787 4.78506 0
M  V30 8196 H 790.811 -1.14656 2.7506 0
M  V30 8197 H 788.348 -0.555089 1.36225 0
M  V30 8198 H 790.306 -3.55922 2.17659 0
M  V30 8199 H 788.936 -3.00503 1.1789 0
M  V30 8200 H 787.988 -1.86677 3.31445 0
M  V30 8201 H 789.3 -2.6366 4.2342 0
M  V30 8202 H 788.454 -4.89923 3.57855 0
M  V30 8203 H 787.193 -4.15302 2.55687 0
M  V30 8204 H 786.198 -3.04487 4.57786 0
M  V30 8205 H 787.423 -3.82292 5.61275 0
M  V30 8206 H 785.369 -5.27403 3.90105 0
M  V30 8207 H 785.286 -5.05807 5.61868 0
M  V30 8208 H 786.554 -6.03236 4.93686 0
M  V30 8209 N 790.784 -1.46188 -0.588786 0
M  V30 8210 C 792.032 -1.50885 -1.34455 0
M  V30 8211 C 792.353 -0.159555 -1.94346 0
M  V30 8212 O 791.623 0.813239 -1.78222 0
M  V30 8213 H 790.203 -0.555707 -0.499198 0
M  V30 8214 H 792.865 -1.82277 -0.690014 0
M  V30 8215 H 791.961 -2.25816 -2.15438 0
M  V30 8216 N 792.262 0.832906 -1.33792 0
M  V30 8217 C 793.194 1.95042 -1.2038 0
M  V30 8218 C 794.207 1.62253 -0.133299 0
M  V30 8219 O 795.396 1.74315 -0.384261 0
M  V30 8220 C 792.496 3.287 -0.825215 0
M  V30 8221 C 791.669 3.89581 -1.98861 0
M  V30 8222 C 790.728 5.01602 -1.59003 0
M  V30 8223 O 789.754 5.20431 -2.30522 0
M  V30 8224 N 790.956 5.78356 -0.498446 0
M  V30 8225 H 793.721 2.07083 -2.16649 0
M  V30 8226 H 791.282 1.00896 -1.26616 0
M  V30 8227 H 793.274 4.01074 -0.540559 0
M  V30 8228 H 791.844 3.12565 0.0469796 0
M  V30 8229 H 791.064 3.09723 -2.43856 0
M  V30 8230 H 792.352 4.26989 -2.76691 0
M  V30 8231 H 791.75 5.65618 0.0963297 0
M  V30 8232 H 790.307 6.51226 -0.273485 0
M  V30 8233 N 793.74 1.17359 1.05189 0
M  V30 8234 C 794.65 0.904984 2.16442 0
M  V30 8235 C 795.666 -0.12686 1.73537 0
M  V30 8236 O 796.842 0.0524127 2.01332 0
M  V30 8237 C 793.907 0.422019 3.44122 0
M  V30 8238 C 792.968 1.52045 4.01473 0
M  V30 8239 C 792.201 1.06044 5.23059 0
M  V30 8240 O 792.424 -0.0854023 5.70336 0
M  V30 8241 O 791.358 1.85349 5.72651 0
M  V30 8242 H 795.184 1.8356 2.41949 0
M  V30 8243 H 792.769 0.95447 1.14936 0
M  V30 8244 H 794.651 0.160208 4.21095 0
M  V30 8245 H 793.326 -0.480444 3.20115 0
M  V30 8246 H 792.233 1.83615 3.25939 0
M  V30 8247 H 793.566 2.39863 4.29798 0
M  V30 8248 N 795.218 -1.23913 0.973828 0
M  V30 8249 C 796.148 -2.27453 0.527969 0
M  V30 8250 C 797.129 -1.6443 -0.435513 0
M  V30 8251 O 798.314 -1.9137 -0.330306 0
M  V30 8252 C 795.444 -3.4685 -0.176757 0
M  V30 8253 C 794.398 -4.22181 0.703352 0
M  V30 8254 C 793.724 -5.34534 -0.133215 0
M  V30 8255 C 795.024 -4.82865 1.99096 0
M  V30 8256 H 796.718 -2.65 1.3934 0
M  V30 8257 H 794.264 -1.27388 0.671446 0
M  V30 8258 H 796.217 -4.18424 -0.499934 0
M  V30 8259 H 794.941 -3.08346 -1.07659 0
M  V30 8260 H 793.6 -3.52416 1.00989 0
M  V30 8261 H 793.248 -4.92271 -1.03338 0
M  V30 8262 H 792.948 -5.85855 0.452494 0
M  V30 8263 H 794.472 -6.08933 -0.450924 0
M  V30 8264 H 795.886 -5.46481 1.73297 0
M  V30 8265 H 794.283 -5.44444 2.52389 0
M  V30 8266 H 795.353 -4.03977 2.68199 0
M  V30 8267 N 796.696 -0.74468 -1.38897 0
M  V30 8268 C 798.107 -0.36568 -1.83084 0
M  V30 8269 C 798.458 1.10436 -1.62168 0
M  V30 8270 O 797.583 1.85281 -1.11804 0
M  V30 8271 C 798.178 -0.656946 -3.3237 0
M  V30 8272 C 796.737 -0.331329 -3.74939 0
M  V30 8273 C 795.884 -0.914661 -2.61781 0
M  V30 8274 H 798.835 -0.941551 -1.27752 0
M  V30 8275 H 798.856 0.0679546 -3.80439 0
M  V30 8276 H 798.368 -1.72693 -3.47561 0
M  V30 8277 H 796.469 0.732426 -3.6533 0
M  V30 8278 H 796.582 -0.820655 -4.72019 0
M  V30 8279 H 794.946 -0.34063 -2.52412 0
M  V30 8280 H 795.729 -1.98949 -2.79775 0
M  V30 8281 N 798.174 1.49689 -0.493057 0
M  V30 8282 C 799.104 2.31826 0.279073 0
M  V30 8283 C 800.085 1.39733 0.969987 0
M  V30 8284 O 801.27 1.68646 0.962925 0
M  V30 8285 C 798.4 3.20046 1.34862 0
M  V30 8286 C 797.354 4.20869 0.77805 0
M  V30 8287 C 796.68 4.97971 1.94753 0
M  V30 8288 C 797.98 5.21813 -0.225543 0
M  V30 8289 H 799.674 2.96627 -0.406512 0
M  V30 8290 H 797.22 1.42647 -0.196943 0
M  V30 8291 H 799.173 3.76315 1.89645 0
M  V30 8292 H 797.897 2.53172 2.06328 0
M  V30 8293 H 796.556 3.65733 0.252036 0
M  V30 8294 H 796.204 4.27552 2.64969 0
M  V30 8295 H 795.904 5.66186 1.57187 0
M  V30 8296 H 797.428 5.57082 2.49984 0
M  V30 8297 H 798.842 5.72823 0.233864 0
M  V30 8298 H 797.239 5.97872 -0.516622 0
M  V30 8299 H 798.309 4.71209 -1.14412 0
M  V30 8300 N 799.652 0.226554 1.55963 0
M  V30 8301 C 800.929 -0.453058 1.90281 0
M  V30 8302 C 801.309 -1.77377 1.14458 0
M  V30 8303 O 800.657 -2.27067 0.255496 0
M  V30 8304 C 800.867 -0.641108 3.43061 0
M  V30 8305 C 802.215 -0.946265 4.13921 0
M  V30 8306 O 803.239 -0.727713 3.48687 0
M  V30 8307 O 802.098 -1.36131 5.29274 0
M  V30 8308 H 799.192 -0.240242 0.791336 0
M  V30 8309 H 801.738 0.26911 1.67553 0
M  V30 8310 H 800.51 0.290283 3.90222 0
M  V30 8311 H 800.133 -1.41458 3.71585 0
M  V30 8312 N 801.13 -1.57531 -0.0467866 0
M  V30 8313 C 802.04 -2.08768 -1.07018 0
M  V30 8314 C 803.056 -1.02245 -1.40791 0
M  V30 8315 O 804.232 -1.33873 -1.50466 0
M  V30 8316 C 801.297 -2.54221 -2.35738 0
M  V30 8317 C 800.358 -3.75152 -2.08709 0
M  V30 8318 C 799.591 -4.18428 -3.31291 0
M  V30 8319 O 799.814 -3.61365 -4.4133 0
M  V30 8320 O 798.748 -5.11018 -3.18032 0
M  V30 8321 H 802.574 -2.96334 -0.664812 0
M  V30 8322 H 800.159 -1.47074 -0.262605 0
M  V30 8323 H 802.041 -2.83866 -3.11445 0
M  V30 8324 H 800.716 -1.69774 -2.75605 0
M  V30 8325 H 799.623 -3.50553 -1.30627 0
M  V30 8326 H 800.956 -4.60528 -1.73708 0
M  V30 8327 N 802.608 0.318715 -1.54344 0
M  V30 8328 C 803.54 1.41364 -1.80413 0
M  V30 8329 C 804.553 1.47627 -0.686294 0
M  V30 8330 O 805.742 1.50264 -0.963486 0
M  V30 8331 C 802.842 2.79867 -1.91123 0
M  V30 8332 C 802.015 2.96749 -3.21339 0
M  V30 8333 C 801.074 4.15642 -3.22689 0
M  V30 8334 O 800.1 4.08571 -3.96306 0
M  V30 8335 N 801.302 5.25416 -2.46817 0
M  V30 8336 H 804.067 1.19363 -2.74905 0
M  V30 8337 H 801.628 0.508722 -1.537 0
M  V30 8338 H 803.62 3.57619 -1.89448 0
M  V30 8339 H 802.19 2.94896 -1.03706 0
M  V30 8340 H 801.41 2.06257 -3.35934 0
M  V30 8341 H 802.698 3.04927 -4.07304 0
M  V30 8342 H 802.096 5.34037 -1.86605 0
M  V30 8343 H 800.653 6.01569 -2.50915 0
M  V30 8344 N 804.086 1.46499 0.581025 0
M  V30 8345 C 805.332 1.53108 1.33901 0
M  V30 8346 C 805.687 0.181007 1.91547 0
M  V30 8347 O 804.98 -0.810518 1.73612 0
M  V30 8348 C 805.174 2.56686 2.48691 0
M  V30 8349 C 805.003 4.01633 2.0229 0
M  V30 8350 C 803.773 4.69333 1.87228 0
M  V30 8351 C 805.971 4.89379 1.58154 0
M  V30 8352 N 803.953 5.98891 1.34917 0
M  V30 8353 C 805.324 6.08775 1.17445 0
M  V30 8354 C 807.379 4.76017 1.45987 0
M  V30 8355 C 806.082 7.16286 0.657805 0
M  V30 8356 C 808.108 5.83601 0.95726 0
M  V30 8357 C 807.47 7.02171 0.55996 0
M  V30 8358 H 803.569 0.61509 0.482896 0
M  V30 8359 H 806.153 1.83123 0.661361 0
M  V30 8360 H 804.324 2.28578 3.14017 0
M  V30 8361 H 806.056 2.5328 3.15644 0
M  V30 8362 H 802.811 4.24878 2.09226 0
M  V30 8363 H 803.235 6.67852 1.10917 0
M  V30 8364 H 807.877 3.84736 1.75322 0
M  V30 8365 H 805.595 8.07333 0.352047 0
M  V30 8366 H 809.181 5.75304 0.867007 0
M  V30 8367 H 808.061 7.84 0.177046 0
M  V30 8368 N 805.565 -0.825799 1.34232 0
M  V30 8369 C 806.981 -1.11848 1.13851 0
M  V30 8370 C 807.181 -2.01405 -0.0619031 0
M  V30 8371 O 806.237 -2.41465 -0.738287 0
M  V30 8372 C 807.55 -1.76797 2.43235 0
M  V30 8373 C 809.098 -1.89304 2.49265 0
M  V30 8374 C 809.573 -2.57669 3.78643 0
M  V30 8375 N 811.064 -2.65171 3.79788 0
M  V30 8376 C 811.799 -3.1879 4.76614 0
M  V30 8377 N 811.295 -3.72995 5.83821 0
M  V30 8378 N 813.088 -3.17164 4.64073 0
M  V30 8379 H 805.239 -0.230049 2.11151 0
M  V30 8380 H 807.502 -0.164609 0.9336 0
M  V30 8381 H 807.208 -1.18455 3.31152 0
M  V30 8382 H 807.082 -2.76693 2.56361 0
M  V30 8383 H 809.469 -2.46796 1.6179 0
M  V30 8384 H 809.55 -0.883191 2.4007 0
M  V30 8385 H 809.194 -2.00833 4.66507 0
M  V30 8386 H 809.124 -3.59152 3.8512 0
M  V30 8387 H 811.615 -2.26746 3.02315 0
M  V30 8388 H 811.928 -4.12151 6.53721 0
M  V30 8389 H 810.273 -3.71246 5.87538 0
M  V30 8390 H 813.464 -2.74082 3.79469 0
M  V30 8391 H 813.637 -3.58647 5.397 0
M  V30 8392 N 807.043 -1.17915 -1.04565 0
M  V30 8393 C 807.953 -0.916449 -2.15959 0
M  V30 8394 C 808.969 0.117655 -1.73602 0
M  V30 8395 O 810.145 -0.063089 -2.01301 0
M  V30 8396 C 807.21 -0.440262 -3.43893 0
M  V30 8397 C 806.271 -1.54172 -4.00661 0
M  V30 8398 C 805.504 -1.08816 -5.22489 0
M  V30 8399 O 805.727 0.0551547 -5.70373 0
M  V30 8400 O 804.661 -1.88383 -5.7166 0
M  V30 8401 H 808.487 -1.8484 -2.40972 0
M  V30 8402 H 806.072 -0.960552 -1.14428 0
M  V30 8403 H 807.954 -0.182537 -4.21004 0
M  V30 8404 H 806.629 0.46346 -3.20365 0
M  V30 8405 H 805.536 -1.85341 -3.24961 0
M  V30 8406 H 806.869 -2.42139 -4.2852 0
M  V30 8407 N 808.521 1.23394 -0.980386 0
M  V30 8408 C 809.484 2.23092 -0.525619 0
M  V30 8409 C 810.484 1.56129 0.384745 0
M  V30 8410 O 811.674 1.73284 0.178439 0
M  V30 8411 C 808.806 3.40074 0.23712 0
M  V30 8412 H 809.999 2.64839 -1.40714 0
M  V30 8413 H 807.552 1.36227 -0.766275 0
M  V30 8414 H 808.287 3.03783 1.13518 0
M  V30 8415 H 808.072 3.89883 -0.416356 0
M  V30 8416 H 809.562 4.14043 0.543892 0
M  V30 8417 N 809.999 0.752036 1.385 0
M  V30 8418 C 811.246 0.307503 2.00152 0
M  V30 8419 C 811.574 -1.11033 1.59693 0
M  V30 8420 O 810.829 -1.77455 0.825125 0
M  V30 8421 C 811.128 0.376155 3.55415 0
M  V30 8422 C 810.794 1.74942 4.15579 0
M  V30 8423 C 809.456 2.12525 4.31725 0
M  V30 8424 C 811.808 2.65031 4.48785 0
M  V30 8425 C 809.136 3.39671 4.78373 0
M  V30 8426 C 811.488 3.91567 4.96848 0
M  V30 8427 C 810.152 4.2922 5.11201 0
M  V30 8428 H 809.422 0.112523 0.732407 0
M  V30 8429 H 812.069 0.962213 1.65571 0
M  V30 8430 H 810.374 -0.362121 3.90123 0
M  V30 8431 H 812.071 0.0138065 4.00998 0
M  V30 8432 H 808.661 1.44726 4.03426 0
M  V30 8433 H 812.845 2.3726 4.35914 0
M  V30 8434 H 808.101 3.68765 4.8767 0
M  V30 8435 H 812.275 4.61517 5.21512 0
M  V30 8436 H 809.902 5.27805 5.47107 0
M  V30 8437 N 811.477 -1.49425 0.500989 0
M  V30 8438 C 812.409 -2.27037 -0.314159 0
M  V30 8439 C 813.422 -1.33578 -0.930626 0
M  V30 8440 O 814.611 -1.58861 -0.813968 0
M  V30 8441 C 811.711 -3.05968 -1.45729 0
M  V30 8442 C 810.884 -4.27 -0.948135 0
M  V30 8443 C 809.943 -4.87977 -1.96888 0
M  V30 8444 O 808.969 -5.48044 -1.53743 0
M  V30 8445 N 810.171 -4.77627 -3.29928 0
M  V30 8446 H 812.936 -2.97634 0.351336 0
M  V30 8447 H 810.497 -1.58427 0.333536 0
M  V30 8448 H 812.489 -3.43634 -2.1377 0
M  V30 8449 H 811.059 -2.37978 -2.02695 0
M  V30 8450 H 810.279 -3.94091 -0.0926311 0
M  V30 8451 H 811.567 -5.0541 -0.586362 0
M  V30 8452 H 810.965 -4.29926 -3.67669 0
M  V30 8453 H 809.522 -5.19478 -3.93682 0
M  V30 8454 N 812.955 -0.234822 -1.55841 0
M  V30 8455 C 814.183 0.397745 -2.03041 0
M  V30 8456 C 814.598 1.52405 -1.11437 0
M  V30 8457 O 813.955 1.82061 -0.126466 0
M  V30 8458 C 814.006 0.916919 -3.49678 0
M  V30 8459 O 813.727 -0.164493 -4.37791 0
M  V30 8460 C 815.228 1.62139 -4.12584 0
M  V30 8461 H 812.448 0.0959214 -0.664108 0
M  V30 8462 H 814.992 -0.355156 -2.01392 0
M  V30 8463 H 813.147 1.62004 -3.519 0
M  V30 8464 H 813.561 0.227794 -5.24005 0
M  V30 8465 H 815.035 1.93651 -5.16917 0
M  V30 8466 H 815.512 2.53918 -3.58361 0
M  V30 8467 H 816.118 0.963145 -4.14251 0
M  V30 8468 N 814.433 1.57553 0.0384317 0
M  V30 8469 C 815.396 2.04927 1.02653 0
M  V30 8470 C 816.396 0.951768 1.29607 0
M  V30 8471 O 817.586 1.21568 1.24768 0
M  V30 8472 C 814.718 2.45828 2.36181 0
M  V30 8473 H 815.911 2.93474 0.617508 0
M  V30 8474 H 813.464 1.53679 0.285031 0
M  V30 8475 H 814.199 1.60408 2.8185 0
M  V30 8476 H 813.984 3.25945 2.1795 0
M  V30 8477 H 815.474 2.82939 3.0714 0
M  V30 8478 N 815.911 -0.310526 1.54511 0
M  V30 8479 C 817.141 -1.06456 1.77061 0
M  V30 8480 C 817.549 -1.81755 0.525528 0
M  V30 8481 O 816.892 -1.76365 -0.513904 0
M  V30 8482 C 816.954 -2.09856 2.91892 0
M  V30 8483 C 816.618 -1.53838 4.30329 0
M  V30 8484 C 817.615 -0.973358 5.10707 0
M  V30 8485 C 815.3 -1.57688 4.76906 0
M  V30 8486 C 817.294 -0.454283 6.35779 0
M  V30 8487 C 814.981 -1.05393 6.01943 0
M  V30 8488 C 815.979 -0.493595 6.81214 0
M  V30 8489 O 815.667 0.0214506 8.03897 0
M  V30 8490 H 815.399 -0.321913 0.594431 0
M  V30 8491 H 817.953 -0.358289 2.02251 0
M  V30 8492 H 816.183 -2.84137 2.62304 0
M  V30 8493 H 817.872 -2.71085 3.02106 0
M  V30 8494 H 818.638 -0.936588 4.75871 0
M  V30 8495 H 814.517 -2.00242 4.1524 0
M  V30 8496 H 818.061 -0.0162657 6.97598 0
M  V30 8497 H 813.958 -1.08782 6.36268 0
M  V30 8498 H 814.726 -0.0927478 8.18447 0
M  V30 8499 N 817.389 -1.46805 -0.573248 0
M  V30 8500 C 818.319 -1.60951 -1.69165 0
M  V30 8501 C 819.3 -0.45948 -1.63777 0
M  V30 8502 O 820.485 -0.68688 -1.81647 0
M  V30 8503 C 817.615 -1.60844 -3.07809 0
M  V30 8504 C 816.569 -2.74913 -3.28035 0
M  V30 8505 C 815.895 -2.59871 -4.67302 0
M  V30 8506 C 817.195 -4.16654 -3.14955 0
M  V30 8507 H 818.889 -2.54574 -1.57582 0
M  V30 8508 H 816.435 -1.22516 -0.756686 0
M  V30 8509 H 818.388 -1.69334 -3.85881 0
M  V30 8510 H 817.112 -0.637714 -3.20314 0
M  V30 8511 H 815.771 -2.65908 -2.52366 0
M  V30 8512 H 815.419 -1.60861 -4.76585 0
M  V30 8513 H 815.119 -3.36386 -4.81786 0
M  V30 8514 H 816.643 -2.70265 -5.4753 0
M  V30 8515 H 818.057 -4.26721 -3.82861 0
M  V30 8516 H 816.454 -4.93831 -3.40956 0
M  V30 8517 H 817.524 -4.36146 -2.11908 0
M  V30 8518 N 818.867 0.818669 -1.34668 0
M  V30 8519 C 820.092 1.61193 -1.30505 0
M  V30 8520 C 820.517 1.87734 0.117341 0
M  V30 8521 O 819.875 1.45591 1.08042 0
M  V30 8522 C 819.923 2.92733 -2.1057 0
M  V30 8523 O 819.027 3.85 -1.47813 0
M  V30 8524 H 818.368 0.490085 -0.44801 0
M  V30 8525 H 820.898 1.01701 -1.77534 0
M  V30 8526 H 820.908 3.42262 -2.22082 0
M  V30 8527 H 819.583 2.7274 -3.13984 0
M  V30 8528 H 818.16 3.43525 -1.45069 0
M  V30 8529 N 820.346 1.18468 1.03938 0
M  V30 8530 C 821.276 0.936389 2.13902 0
M  V30 8531 C 822.257 -0.126381 1.6963 0
M  V30 8532 O 823.442 0.0264757 1.94182 0
M  V30 8533 C 820.572 0.462729 3.44204 0
M  V30 8534 C 819.526 1.46613 4.02105 0
M  V30 8535 C 818.852 0.84994 5.27902 0
M  V30 8536 C 820.152 2.84323 4.3813 0
M  V30 8537 H 821.846 1.85602 2.3493 0
M  V30 8538 H 819.392 0.893806 1.12903 0
M  V30 8539 H 821.345 0.276382 4.20493 0
M  V30 8540 H 820.069 -0.492477 3.22866 0
M  V30 8541 H 818.728 1.63944 3.27899 0
M  V30 8542 H 818.376 -0.112493 5.02874 0
M  V30 8543 H 818.076 1.51988 5.67603 0
M  V30 8544 H 819.6 0.674152 6.06867 0
M  V30 8545 H 821.014 2.70636 5.054 0
M  V30 8546 H 819.411 3.48012 4.88884 0
M  V30 8547 H 820.481 3.37776 3.47901 0
M  V30 8548 N 821.824 -1.22873 0.986916 0
M  V30 8549 C 823.072 -1.91084 0.658121 0
M  V30 8550 C 823.393 -1.77304 -0.811675 0
M  V30 8551 O 822.663 -1.15649 -1.58121 0
M  V30 8552 H 821.243 -0.707251 0.240427 0
M  V30 8553 H 823.905 -1.49357 1.25213 0
M  V30 8554 H 823.001 -2.98373 0.915428 0
M  V30 8555 N 823.302 -0.75937 -1.38099 0
M  V30 8556 C 824.55 -0.317485 -1.99591 0
M  V30 8557 C 824.871 1.10628 -1.60581 0
M  V30 8558 O 824.141 1.7575 -0.865378 0
M  V30 8559 H 822.721 -0.114397 -0.738189 0
M  V30 8560 H 825.383 -0.974749 -1.68774 0
M  V30 8561 H 824.479 -0.385227 -3.09713 0
M  V30 8562 N 824.78 1.49157 -0.508906 0
M  V30 8563 C 825.71 2.32109 0.254469 0
M  V30 8564 C 826.691 1.40754 0.955111 0
M  V30 8565 O 827.876 1.69658 0.944983 0
M  V30 8566 C 825.006 3.21458 1.3146 0
M  V30 8567 C 823.96 4.2167 0.733368 0
M  V30 8568 C 823.286 5.00009 1.8946 0
M  V30 8569 C 824.586 5.21544 -0.280875 0
M  V30 8570 H 826.28 2.9618 -0.43795 0
M  V30 8571 H 823.826 1.4243 -0.212062 0
M  V30 8572 H 825.779 3.78305 1.85643 0
M  V30 8573 H 824.503 2.55346 2.03632 0
M  V30 8574 H 823.162 3.65979 0.213231 0
M  V30 8575 H 822.81 4.30338 2.60419 0
M  V30 8576 H 822.51 5.67821 1.51173 0
M  V30 8577 H 824.034 5.59702 2.44061 0
M  V30 8578 H 825.448 5.73039 0.173095 0
M  V30 8579 H 823.845 5.97291 -0.580006 0
M  V30 8580 H 824.915 4.69969 -1.19404 0
M  V30 8581 N 826.258 0.243083 1.55714 0
M  V30 8582 C 827.506 -0.381964 1.98458 0
M  V30 8583 C 827.827 -1.58745 1.13247 0
M  V30 8584 O 827.097 -1.94723 0.214384 0
M  V30 8585 H 825.677 -0.144114 0.732967 0
M  V30 8586 H 828.339 0.340985 1.91894 0
M  V30 8587 H 827.435 -0.693702 3.04293 0
M  V30 8588 N 827.736 -1.57571 -0.0300757 0
M  V30 8589 C 828.646 -2.09892 -1.04798 0
M  V30 8590 C 829.662 -1.03732 -1.39698 0
M  V30 8591 O 830.838 -1.35461 -1.49038 0
M  V30 8592 C 827.903 -2.56707 -2.33028 0
M  V30 8593 C 826.964 -3.77345 -2.04718 0
M  V30 8594 C 826.197 -4.21918 -3.26834 0
M  V30 8595 O 826.42 -3.66025 -4.37472 0
M  V30 8596 O 825.354 -5.14362 -3.12594 0
M  V30 8597 H 829.18 -2.97023 -0.633344 0
M  V30 8598 H 826.765 -1.47344 -0.246991 0
M  V30 8599 H 828.647 -2.87154 -3.08417 0
M  V30 8600 H 827.322 -1.72688 -2.73789 0
M  V30 8601 H 826.229 -3.51919 -1.26901 0
M  V30 8602 H 827.562 -4.62345 -1.68813 0
M  V30 8603 N 829.214 0.302327 -1.54673 0
M  V30 8604 C 830.63 0.647911 -1.45857 0
M  V30 8605 C 830.83 1.90773 -0.64869 0
M  V30 8606 O 829.886 2.52018 -0.155865 0
M  V30 8607 C 831.199 0.802144 -2.89804 0
M  V30 8608 C 832.747 0.898114 -2.99838 0
M  V30 8609 C 833.222 1.08436 -4.44978 0
M  V30 8610 N 834.713 1.15059 -4.48682 0
M  V30 8611 C 835.448 1.31296 -5.58166 0
M  V30 8612 N 834.944 1.4444 -6.77576 0
M  V30 8613 N 836.737 1.34174 -5.45851 0
M  V30 8614 H 828.888 -0.525428 -2.05798 0
M  V30 8615 H 831.151 -0.173423 -0.932002 0
M  V30 8616 H 830.857 -0.0526531 -3.51661 0
M  V30 8617 H 830.731 1.69155 -3.37145 0
M  V30 8618 H 833.118 1.7434 -2.38096 0
M  V30 8619 H 833.199 -0.0152752 -2.55795 0
M  V30 8620 H 832.843 0.243843 -5.07314 0
M  V30 8621 H 832.773 2.01195 -4.8665 0
M  V30 8622 H 835.264 1.0626 -3.62653 0
M  V30 8623 H 835.577 1.56582 -7.56771 0
M  V30 8624 H 833.922 1.41499 -6.80443 0
M  V30 8625 H 837.113 1.23516 -4.5151 0
M  V30 8626 H 837.286 1.46485 -6.31226 0
M  V30 8627 N 830.692 1.47107 0.565454 0
M  V30 8628 C 831.938 1.53535 1.32495 0
M  V30 8629 C 832.271 0.193537 1.93233 0
M  V30 8630 O 831.546 -0.796956 1.77423 0
M  V30 8631 C 831.829 2.64712 2.4413 0
M  V30 8632 C 831.682 4.08482 1.88314 0
M  V30 8633 C 833.001 2.71853 3.46098 0
M  V30 8634 H 830.12 0.558926 0.480386 0
M  V30 8635 H 832.762 1.79125 0.633575 0
M  V30 8636 H 830.912 2.43023 3.03104 0
M  V30 8637 H 832.584 4.4151 1.33665 0
M  V30 8638 H 830.827 4.17148 1.19037 0
M  V30 8639 H 831.498 4.82032 2.68978 0
M  V30 8640 H 833.974 2.91397 2.97031 0
M  V30 8641 H 832.85 3.51433 4.21646 0
M  V30 8642 H 833.111 1.78584 4.04426 0
M  V30 8643 N 832.17 -0.811516 1.35101 0
M  V30 8644 C 833.1 -1.9378 1.30275 0
M  V30 8645 C 834.081 -1.69165 0.178075 0
M  V30 8646 O 835.266 -1.90599 0.372256 0
M  V30 8647 C 832.396 -3.30439 1.06899 0
M  V30 8648 C 831.35 -3.69523 2.15955 0
M  V30 8649 C 830.676 -5.0429 1.77751 0
M  V30 8650 C 831.976 -3.80419 3.57881 0
M  V30 8651 H 833.67 -1.98075 2.24514 0
M  V30 8652 H 831.216 -0.951586 1.08078 0
M  V30 8653 H 833.169 -4.08828 1.02164 0
M  V30 8654 H 831.893 -3.26473 0.0910462 0
M  V30 8655 H 830.552 -2.93416 2.19778 0
M  V30 8656 H 830.2 -4.96823 0.785876 0
M  V30 8657 H 829.9 -5.31411 2.5075 0
M  V30 8658 H 831.424 -5.85125 1.74533 0
M  V30 8659 H 832.838 -4.49051 3.56407 0
M  V30 8660 H 831.235 -4.19005 4.29598 0
M  V30 8661 H 832.305 -2.82105 3.94391 0
M  V30 8662 N 833.648 -1.19017 -1.03309 0
M  V30 8663 C 834.896 -0.988258 -1.76289 0
M  V30 8664 C 835.217 0.482557 -1.88935 0
M  V30 8665 O 834.487 1.34969 -1.41987 0
M  V30 8666 H 833.067 -0.36267 -0.653054 0
M  V30 8667 H 835.729 -1.49836 -1.2464 0
M  V30 8668 H 834.825 -1.43273 -2.77271 0
M  V30 8669 N 835.127 1.22348 -0.993418 0
M  V30 8670 C 836.374 1.9111 -0.669568 0
M  V30 8671 C 836.702 1.77357 0.79843 0
M  V30 8672 O 835.957 1.13675 1.593 0
M  V30 8673 C 836.256 3.42477 -1.02197 0
M  V30 8674 C 835.922 3.7642 -2.48232 0
M  V30 8675 C 834.584 3.85395 -2.88139 0
M  V30 8676 C 836.936 3.9253 -3.42884 0
M  V30 8677 C 834.264 4.07918 -4.21687 0
M  V30 8678 C 836.616 4.16557 -4.76091 0
M  V30 8679 C 835.28 4.23757 -5.15739 0
M  V30 8680 H 834.55 0.699321 -0.245012 0
M  V30 8681 H 837.197 1.45102 -1.2497 0
M  V30 8682 H 835.502 3.90143 -0.359921 0
M  V30 8683 H 837.199 3.93935 -0.74942 0
M  V30 8684 H 833.789 3.70017 -2.16299 0
M  V30 8685 H 837.973 3.84974 -3.13224 0
M  V30 8686 H 833.229 4.11719 -4.51993 0
M  V30 8687 H 837.403 4.27966 -5.4938 0
M  V30 8688 H 835.03 4.40962 -6.19239 0
M  V30 8689 N 836.605 0.766683 1.37694 0
M  V30 8690 C 837.845 0.333815 2.01656 0
M  V30 8691 C 838.209 -1.06813 1.59546 0
M  V30 8692 O 839.41 -1.60084 2.15932 0
M  V30 8693 C 837.681 0.467032 3.54335 0
M  V30 8694 S 839.24 0.118679 4.38639 0
M  V30 8695 H 836.058 0.128723 0.699251 0
M  V30 8696 H 838.66 1.00018 1.67978 0
M  V30 8697 H 837.364 1.48808 3.82471 0
M  V30 8698 H 836.895 -0.216066 3.92806 0
M  V30 8699 H 838.91 -1.08746 4.84137 0
M  V30 8700 N 838.083 -1.48885 0.516809 0
M  V30 8701 C 839.015 -2.27357 -0.290061 0
M  V30 8702 C 840.028 -1.34558 -0.916406 0
M  V30 8703 O 841.217 -1.59715 -0.797073 0
M  V30 8704 C 838.317 -3.07496 -1.42476 0
M  V30 8705 C 837.49 -4.27982 -0.902793 0
M  V30 8706 C 836.549 -4.90038 -1.91701 0
M  V30 8707 O 835.575 -5.49643 -1.47922 0
M  V30 8708 N 836.777 -4.811 -3.24843 0
M  V30 8709 H 839.542 -2.97244 0.382884 0
M  V30 8710 H 837.103 -1.58064 0.35032 0
M  V30 8711 H 839.095 -3.45882 -2.10113 0
M  V30 8712 H 837.665 -2.40115 -2.00159 0
M  V30 8713 H 836.885 -3.94167 -0.0508272 0
M  V30 8714 H 838.173 -5.06003 -0.532723 0
M  V30 8715 H 837.571 -4.33801 -3.63088 0
M  V30 8716 H 836.128 -5.23625 -3.8815 0
M  V30 8717 N 839.561 -0.251338 -1.55583 0
M  V30 8718 C 840.491 0.640437 -2.24545 0
M  V30 8719 C 841.472 1.17781 -1.22726 0
M  V30 8720 O 842.657 1.21633 -1.5139 0
M  V30 8721 C 839.787 1.8355 -2.94834 0
M  V30 8722 C 838.741 1.4307 -4.03379 0
M  V30 8723 C 838.067 2.70695 -4.61116 0
M  V30 8724 C 839.367 0.59848 -5.1886 0
M  V30 8725 H 841.061 0.0653772 -2.99329 0
M  V30 8726 H 838.607 0.0300042 -1.43969 0
M  V30 8727 H 840.56 2.46505 -3.4178 0
M  V30 8728 H 839.284 2.43601 -2.17546 0
M  V30 8729 H 837.943 0.824474 -3.57209 0
M  V30 8730 H 837.591 3.28954 -3.80524 0
M  V30 8731 H 837.291 2.44332 -5.34393 0
M  V30 8732 H 838.815 3.34541 -5.10798 0
M  V30 8733 H 840.229 1.13244 -5.62004 0
M  V30 8734 H 838.626 0.430728 -5.98552 0
M  V30 8735 H 839.696 -0.38829 -4.83343 0
M  V30 8736 N 841.039 1.57585 0.0217189 0
M  V30 8737 C 842.269 1.9359 0.721572 0
M  V30 8738 C 842.677 0.850132 1.69025 0
M  V30 8739 O 842.02 -0.181539 1.82801 0
M  V30 8740 C 842.082 3.25445 1.52729 0
M  V30 8741 C 841.746 4.51251 0.722586 0
M  V30 8742 C 842.743 5.19896 0.0196598 0
M  V30 8743 C 840.428 4.97745 0.674959 0
M  V30 8744 C 842.422 6.33319 -0.720114 0
M  V30 8745 C 840.109 6.11062 -0.068555 0
M  V30 8746 C 841.107 6.78704 -0.764845 0
M  V30 8747 O 840.795 7.89852 -1.49627 0
M  V30 8748 H 840.527 0.643409 0.207366 0
M  V30 8749 H 843.081 2.05391 -0.0189346 0
M  V30 8750 H 841.311 3.0999 2.31178 0
M  V30 8751 H 843 3.46721 2.11044 0
M  V30 8752 H 843.766 4.84977 0.0474394 0
M  V30 8753 H 839.645 4.44934 1.20643 0
M  V30 8754 H 843.189 6.86051 -1.26413 0
M  V30 8755 H 839.086 6.45425 -0.0982318 0
M  V30 8756 H 839.854 8.06251 -1.41071 0
M  V30 8757 N 842.517 -0.29412 1.54831 0
M  V30 8758 C 843.447 -1.36757 1.89261 0
M  V30 8759 C 844.428 -1.52564 0.752214 0
M  V30 8760 O 845.613 -1.65958 1.00855 0
M  V30 8761 C 842.743 -2.73066 2.14597 0
M  V30 8762 C 841.697 -2.72017 3.3044 0
M  V30 8763 C 841.023 -4.11679 3.4121 0
M  V30 8764 C 842.323 -2.33149 4.67375 0
M  V30 8765 H 844.017 -1.08191 2.79169 0
M  V30 8766 H 841.563 -0.519014 1.34321 0
M  V30 8767 H 843.516 -3.48255 2.37269 0
M  V30 8768 H 842.24 -3.03172 1.21467 0
M  V30 8769 H 840.899 -1.99285 3.07703 0
M  V30 8770 H 840.547 -4.38973 2.45584 0
M  V30 8771 H 840.247 -4.11877 4.19084 0
M  V30 8772 H 841.771 -4.88637 3.6615 0
M  V30 8773 H 843.185 -2.98054 4.89731 0
M  V30 8774 H 841.582 -2.44546 5.48012 0
M  V30 8775 H 842.652 -1.28275 4.67626 0
M  V30 8776 N 843.995 -1.47404 -0.557645 0
M  V30 8777 C 844.943 -1.60265 -1.68576 0
M  V30 8778 C 845.937 -0.469982 -1.6275 0
M  V30 8779 O 847.143 -0.647764 -1.67941 0
M  V30 8780 H 843.518 -0.504353 -0.557792 0
M  V30 8781 H 845.489 -2.55066 -1.54867 0
M  V30 8782 C 844.238 -1.63369 -3.0693 0
M  V30 8783 H 843.561 -2.49874 -3.12095 0
M  V30 8784 H 845.001 -1.76417 -3.85556 0
M  V30 8785 C 843.46 -0.366921 -3.34896 0
M  V30 8786 O 843.99 0.53218 -3.98159 0
M  V30 8787 N 842.196 -0.247082 -2.89548 0
M  V30 8788 H 841.743 -0.979669 -2.38244 0
M  V30 8789 H 841.701 0.599552 -3.0863 0
M  V30 8790 N 845.473 0.80434 -1.35529 0
M  V30 8791 C 846.383 1.94784 -1.30753 0
M  V30 8792 C 847.399 1.72703 -0.212071 0
M  V30 8793 O 848.575 1.96494 -0.441841 0
M  V30 8794 C 845.64 3.29406 -1.08133 0
M  V30 8795 C 844.701 3.64367 -2.27013 0
M  V30 8796 C 843.934 4.92566 -2.05463 0
M  V30 8797 O 844.157 5.61166 -1.02222 0
M  V30 8798 O 843.091 5.25838 -2.92879 0
M  V30 8799 H 846.917 2.01761 -2.26994 0
M  V30 8800 H 844.502 0.942448 -1.15924 0
M  V30 8801 H 846.384 4.09995 -0.973756 0
M  V30 8802 H 845.059 3.23355 -0.149444 0
M  V30 8803 H 843.966 2.84146 -2.43335 0
M  V30 8804 H 845.299 3.75125 -3.18656 0
M  V30 8805 N 846.951 1.19563 1.02676 0
M  V30 8806 C 847.898 0.935291 2.11 0
M  V30 8807 C 848.868 -0.130685 1.65585 0
M  V30 8808 O 850.053 0.0119062 1.90796 0
M  V30 8809 C 847.193 0.482384 3.41712 0
M  V30 8810 C 846.306 1.61537 4.00662 0
M  V30 8811 C 845.441 1.11378 5.19392 0
M  V30 8812 C 844.48 2.22052 5.70403 0
M  V30 8813 N 843.617 1.73185 6.80405 0
M  V30 8814 H 848.457 1.86275 2.32606 0
M  V30 8815 H 845.994 0.928656 1.14081 0
M  V30 8816 H 847.952 0.20118 4.16715 0
M  V30 8817 H 846.582 -0.408086 3.2021 0
M  V30 8818 H 845.634 2.01173 3.22852 0
M  V30 8819 H 846.946 2.44912 4.34534 0
M  V30 8820 H 846.1 0.787935 6.01562 0
M  V30 8821 H 844.839 0.249789 4.8706 0
M  V30 8822 H 843.844 2.55465 4.86845 0
M  V30 8823 H 845.069 3.08911 6.04774 0
M  V30 8824 H 843.015 0.890973 6.49921 0
M  V30 8825 H 842.932 2.50148 7.13416 0
M  V30 8826 H 844.2 1.4357 7.66164 0
M  V30 8827 N 848.429 -1.21819 0.999893 0
M  V30 8828 C 849.706 -1.86318 0.595384 0
M  V30 8829 C 850.086 -1.8965 -0.927143 0
M  V30 8830 O 849.434 -1.3921 -1.81199 0
M  V30 8831 C 849.644 -3.26837 1.22387 0
M  V30 8832 C 850.992 -4.03272 1.32878 0
M  V30 8833 O 852.016 -3.36129 1.1788 0
M  V30 8834 O 850.875 -5.23477 1.56952 0
M  V30 8835 H 847.969 -0.801638 0.203238 0
M  V30 8836 H 850.515 -1.29542 1.09622 0
M  V30 8837 H 849.287 -3.19084 2.26497 0
M  V30 8838 H 848.91 -3.91226 0.709069 0
M  V30 8839 N 849.908 -0.773975 -1.37286 0
M  V30 8840 C 851.138 -0.350249 -2.03609 0
M  V30 8841 C 851.546 1.03313 -1.58502 0
M  V30 8842 O 850.889 1.67118 -0.7627 0
M  V30 8843 C 850.951 -0.317215 -3.58098 0
M  V30 8844 C 850.615 -1.64556 -4.26345 0
M  V30 8845 C 851.612 -2.59839 -4.50311 0
M  V30 8846 C 849.297 -1.92061 -4.64131 0
M  V30 8847 C 851.291 -3.80833 -5.11122 0
M  V30 8848 C 848.978 -3.13325 -5.24663 0
M  V30 8849 C 849.976 -4.0753 -5.48095 0
M  V30 8850 O 849.664 -5.26658 -6.0736 0
M  V30 8851 H 849.396 -0.144456 -0.660385 0
M  V30 8852 H 851.95 -1.0496 -1.76557 0
M  V30 8853 H 850.18 0.438528 -3.84205 0
M  V30 8854 H 851.869 0.0797428 -4.05822 0
M  V30 8855 H 852.635 -2.39872 -4.21529 0
M  V30 8856 H 848.514 -1.19562 -4.45226 0
M  V30 8857 H 852.058 -4.54377 -5.29327 0
M  V30 8858 H 847.955 -3.33177 -5.52869 0
M  V30 8859 H 848.723 -5.27513 -6.25837 0
M  V30 8860 N 851.386 1.48609 -0.524698 0
M  V30 8861 C 852.797 1.86516 -0.0828846 0
M  V30 8862 C 853.148 1.43478 1.33822 0
M  V30 8863 O 852.273 0.823139 2.00133 0
M  V30 8864 C 852.868 3.38495 -0.143639 0
M  V30 8865 C 851.427 3.75615 0.242951 0
M  V30 8866 C 850.574 2.72649 -0.505747 0
M  V30 8867 H 853.525 1.40589 -0.736233 0
M  V30 8868 H 853.546 3.74977 0.645955 0
M  V30 8869 H 853.058 3.69789 -1.17805 0
M  V30 8870 H 851.159 3.49935 1.27971 0
M  V30 8871 H 851.272 4.7901 -0.0929834 0
M  V30 8872 H 849.636 2.54656 0.0473482 0
M  V30 8873 H 850.419 3.06786 -1.54069 0
M  V30 8874 N 852.864 0.259585 1.55447 0
M  V30 8875 C 854.275 -0.241165 1.85136 0
M  V30 8876 C 854.626 -1.56634 1.18153 0
M  V30 8877 O 853.751 -2.11359 0.464351 0
M  V30 8878 C 854.346 -0.444355 3.35873 0
M  V30 8879 C 852.905 -0.889354 3.65742 0
M  V30 8880 C 852.052 0.0262474 2.77288 0
M  V30 8881 H 855.003 0.481808 1.51209 0
M  V30 8882 H 855.024 -1.28517 3.58139 0
M  V30 8883 H 854.536 0.520289 3.84597 0
M  V30 8884 H 852.637 -1.86602 3.22507 0
M  V30 8885 H 852.75 -0.737432 4.73391 0
M  V30 8886 H 851.114 -0.487361 2.49994 0
M  V30 8887 H 851.897 0.986494 3.28821 0
M  V30 8888 N 854.342 -1.57594 -0.0133615 0
M  V30 8889 C 855.59 -1.89605 -0.699596 0
M  V30 8890 C 855.911 -0.85926 -1.75048 0
M  V30 8891 O 855.181 0.105112 -1.95618 0
M  V30 8892 H 853.761 -0.699776 -0.261385 0
M  V30 8893 H 856.423 -1.94885 0.0244044 0
M  V30 8894 H 855.519 -2.88962 -1.17928 0
M  V30 8895 N 855.82 0.285905 -1.54985 0
M  V30 8896 C 857.05 1.03626 -1.78732 0
M  V30 8897 C 857.458 1.80896 -0.554377 0
M  V30 8898 O 856.801 1.77161 0.48578 0
M  V30 8899 C 856.863 2.05185 -2.95193 0
M  V30 8900 C 856.527 1.46973 -4.32722 0
M  V30 8901 C 857.524 0.891986 -5.12191 0
M  V30 8902 C 855.209 1.50081 -4.79355 0
M  V30 8903 C 857.203 0.353078 -6.36421 0
M  V30 8904 C 854.89 0.958037 -6.03544 0
M  V30 8905 C 855.888 0.385157 -6.81913 0
M  V30 8906 O 855.576 -0.149341 -8.03761 0
M  V30 8907 H 855.308 0.312416 -0.599477 0
M  V30 8908 H 857.862 0.326067 -2.02795 0
M  V30 8909 H 856.092 2.79928 -2.66791 0
M  V30 8910 H 857.781 2.66244 -3.0638 0
M  V30 8911 H 858.547 0.860762 -4.77301 0
M  V30 8912 H 854.426 1.9361 -4.18373 0
M  V30 8913 H 857.97 -0.0947181 -6.97536 0
M  V30 8914 H 853.867 0.986458 -6.37918 0
M  V30 8915 H 854.635 -0.0374719 -8.18491 0
M  V30 8916 N 857.298 1.47698 0.54982 0
M  V30 8917 C 858.261 1.60282 1.63837 0
M  V30 8918 C 859.261 0.477394 1.5355 0
M  V30 8919 O 860.451 0.742665 1.57576 0
M  V30 8920 C 857.583 1.55431 3.03404 0
M  V30 8921 H 858.776 2.57325 1.54026 0
M  V30 8922 H 856.329 1.35999 0.770329 0
M  V30 8923 H 857.064 0.597912 3.1874 0
M  V30 8924 H 856.849 2.37116 3.12279 0
M  V30 8925 H 858.339 1.6739 3.82584 0
M  V30 8926 N 858.776 -0.797141 1.35954 0
M  V30 8927 C 860.023 -1.55468 1.29754 0
M  V30 8928 C 860.351 -1.94095 -0.125391 0
M  V30 8929 O 859.606 -1.62341 -1.09288 0
M  V30 8930 C 859.905 -2.84847 2.15863 0
M  V30 8931 C 859.571 -2.65394 3.64523 0
M  V30 8932 C 858.233 -2.59796 4.05042 0
M  V30 8933 C 860.585 -2.4727 4.58811 0
M  V30 8934 C 857.913 -2.3403 5.38002 0
M  V30 8935 C 860.265 -2.23032 5.91979 0
M  V30 8936 C 858.929 -2.15862 6.31633 0
M  V30 8937 H 858.199 -0.568897 0.474803 0
M  V30 8938 H 860.846 -0.920299 1.67937 0
M  V30 8939 H 859.151 -3.52712 1.70591 0
M  V30 8940 H 860.848 -3.42597 2.08395 0
M  V30 8941 H 857.438 -2.70602 3.32374 0
M  V30 8942 H 861.622 -2.506 4.28384 0
M  V30 8943 H 856.878 -2.26956 5.67715 0
M  V30 8944 H 861.052 -2.08001 6.64612 0
M  V30 8945 H 858.679 -1.9566 7.34589 0
M  V30 8946 N 860.254 -1.20106 -1.0204 0
M  V30 8947 C 861.531 -0.918029 -1.72718 0
M  V30 8948 C 861.911 0.574163 -2.03142 0
M  V30 8949 O 861.259 1.53476 -1.69285 0
M  V30 8950 C 861.469 -1.78698 -2.9978 0
M  V30 8951 C 862.817 -2.02648 -3.7312 0
M  V30 8952 O 863.841 -1.75919 -3.09727 0
M  V30 8953 O 862.7 -2.47767 -4.87107 0
M  V30 8954 H 859.794 -0.342904 -0.752559 0
M  V30 8955 H 862.34 -1.30961 -1.07923 0
M  V30 8956 H 861.112 -2.79757 -2.7359 0
M  V30 8957 H 860.735 -1.39522 -3.72316 0
M  V30 8958 N 861.732 1.21287 -1.00634 0
M  V30 8959 C 862.978 1.90671 -0.690822 0
M  V30 8960 C 863.311 1.77996 0.776592 0
M  V30 8961 O 862.586 1.15748 1.5631 0
M  V30 8962 C 862.869 3.42426 -1.11428 0
M  V30 8963 C 862.722 3.64086 -2.64124 0
M  V30 8964 C 864.041 4.34851 -0.677686 0
M  V30 8965 H 861.16 0.692419 -0.252439 0
M  V30 8966 H 863.802 1.42893 -1.25226 0
M  V30 8967 H 861.952 3.83249 -0.636586 0
M  V30 8968 H 863.624 3.32582 -3.19667 0
M  V30 8969 H 861.867 3.07906 -3.05576 0
M  V30 8970 H 862.538 4.7042 -2.88806 0
M  V30 8971 H 865.014 4.01619 -1.0882 0
M  V30 8972 H 863.89 5.39675 -1.00213 0
M  V30 8973 H 864.151 4.4009 0.421125 0
M  V30 8974 N 863.21 0.781244 1.36873 0
M  V30 8975 C 864.12 0.174981 2.33947 0
M  V30 8976 C 865.136 -0.668512 1.60645 0
M  V30 8977 O 866.312 -0.586213 1.9268 0
M  V30 8978 C 863.377 -0.686557 3.39834 0
M  V30 8979 C 862.438 0.174489 4.28945 0
M  V30 8980 C 861.671 -0.646024 5.29776 0
M  V30 8981 O 861.894 -1.88254 5.38439 0
M  V30 8982 O 860.828 -0.0502214 6.01879 0
M  V30 8983 H 864.654 0.977382 2.87543 0
M  V30 8984 H 862.239 0.542559 1.392 0
M  V30 8985 H 864.121 -1.1781 4.04597 0
M  V30 8986 H 862.796 -1.46699 2.8855 0
M  V30 8987 H 861.703 0.712604 3.6725 0
M  V30 8988 H 863.036 0.918232 4.83559 0
M  V30 8989 N 864.689 -1.48329 0.532571 0
M  V30 8990 C 865.652 -2.2816 -0.218069 0
M  V30 8991 C 866.652 -1.35526 -0.865409 0
M  V30 8992 O 867.842 -1.58394 -0.725061 0
M  V30 8993 C 864.974 -3.1448 -1.31586 0
M  V30 8994 H 866.167 -2.95987 0.482865 0
M  V30 8995 H 863.72 -1.53612 0.288603 0
M  V30 8996 H 864.455 -2.5129 -2.04997 0
M  V30 8997 H 864.24 -3.82625 -0.856779 0
M  V30 8998 H 865.73 -3.74693 -1.84377 0
M  V30 8999 N 866.167 -0.267825 -1.55308 0
M  V30 9000 C 867.1 0.663973 -2.18327 0
M  V30 9001 C 868.078 1.15759 -1.14187 0
M  V30 9002 O 869.262 1.23189 -1.42677 0
M  V30 9003 C 866.389 1.9047 -2.8007 0
M  V30 9004 C 865.435 1.54718 -3.97447 0
M  V30 9005 S 866.268 0.631654 -5.31762 0
M  V30 9006 C 867.424 1.88092 -5.96969 0
M  V30 9007 H 867.657 0.128486 -2.97022 0
M  V30 9008 H 865.19 -0.052129 -1.54312 0
M  V30 9009 H 867.148 2.61688 -3.16275 0
M  V30 9010 H 865.809 2.41132 -2.01281 0
M  V30 9011 H 865.002 2.47022 -4.39313 0
M  V30 9012 H 864.604 0.915254 -3.62628 0
M  V30 9013 H 866.896 2.82572 -6.15759 0
M  V30 9014 H 867.839 1.50539 -6.91913 0
M  V30 9015 H 868.247 2.04254 -5.26252 0
M  V30 9016 N 867.645 1.57599 0.00500368 0
M  V30 9017 C 868.593 2.09223 1.01628 0
M  V30 9018 C 869.587 1.01113 1.35913 0
M  V30 9019 O 870.793 1.19583 1.34536 0
M  V30 9020 H 867.168 0.667999 0.345372 0
M  V30 9021 H 869.139 2.93188 0.555274 0
M  V30 9022 C 867.888 2.60674 2.30097 0
M  V30 9023 H 867.211 3.43491 2.04582 0
M  V30 9024 H 868.651 3.00479 2.99146 0
M  V30 9025 C 867.11 1.51862 3.00731 0
M  V30 9026 O 867.64 0.898651 3.91519 0
M  V30 9027 N 865.846 1.24729 2.62471 0
M  V30 9028 H 865.393 1.7533 1.88725 0
M  V30 9029 H 865.351 0.521437 3.10046 0
M  V30 9030 N 869.123 -0.277682 1.55134 0
M  V30 9031 C 870.37 -1.0099 1.7552 0
M  V30 9032 C 870.698 -1.86452 0.553712 0
M  V30 9033 O 869.953 -1.90122 -0.463896 0
M  V30 9034 C 870.252 -1.92599 3.01065 0
M  V30 9035 C 869.918 -1.22926 4.3382 0
M  V30 9036 C 868.58 -1.03659 4.69902 0
M  V30 9037 C 870.932 -0.733071 5.16019 0
M  V30 9038 C 868.26 -0.334933 5.85743 0
M  V30 9039 C 870.612 -0.0450319 6.32584 0
M  V30 9040 C 869.276 0.159393 6.6731 0
M  V30 9041 H 868.546 -0.36955 0.642273 0
M  V30 9042 H 871.193 -0.282611 1.89403 0
M  V30 9043 H 869.498 -2.71934 2.82062 0
M  V30 9044 H 871.195 -2.49367 3.14034 0
M  V30 9045 H 867.785 -1.38933 4.05457 0
M  V30 9046 H 871.969 -0.869565 4.88623 0
M  V30 9047 H 867.225 -0.165783 6.11175 0
M  V30 9048 H 871.399 0.34723 6.95534 0
M  V30 9049 H 869.026 0.70507 7.56923 0
M  V30 9050 N 870.601 -1.47988 -0.541979 0
M  V30 9051 C 872.012 -1.49073 -1.12402 0
M  V30 9052 C 872.363 -0.253825 -1.94551 0
M  V30 9053 O 871.488 0.640056 -2.06718 0
M  V30 9054 C 872.083 -2.7011 -2.04514 0
M  V30 9055 C 870.642 -2.74105 -2.5796 0
M  V30 9056 C 869.789 -2.42409 -1.3466 0
M  V30 9057 H 872.74 -1.55277 -0.327818 0
M  V30 9058 H 872.761 -2.47946 -2.88623 0
M  V30 9059 H 872.273 -3.60117 -1.44697 0
M  V30 9060 H 870.374 -1.88276 -3.21532 0
M  V30 9061 H 870.487 -3.75213 -2.97913 0
M  V30 9062 H 868.851 -1.9331 -1.65841 0
M  V30 9063 H 869.634 -3.34642 -0.766133 0
M  V30 9064 N 872.079 0.78992 -1.36375 0
M  V30 9065 C 873.304 1.58389 -1.33895 0
M  V30 9066 C 873.729 1.8794 0.0774934 0
M  V30 9067 O 873.087 1.4785 1.0493 0
M  V30 9068 C 873.135 2.88201 -2.16732 0
M  V30 9069 O 872.239 3.81778 -1.55946 0
M  V30 9070 H 871.58 0.480471 -0.458305 0
M  V30 9071 H 874.11 0.979119 -1.79651 0
M  V30 9072 H 874.12 3.37475 -2.29292 0
M  V30 9073 H 872.795 2.66019 -3.19698 0
M  V30 9074 H 871.372 3.40371 -1.52323 0
M  V30 9075 N 873.557 1.20646 1.01402 0
M  V30 9076 C 874.782 1.04462 1.79172 0
M  V30 9077 C 875.207 -0.401588 1.83763 0
M  V30 9078 O 874.565 -1.28934 1.27459 0
M  V30 9079 C 874.613 1.63583 3.21361 0
M  V30 9080 O 873.717 0.875198 4.03006 0
M  V30 9081 H 873.058 0.368235 0.552539 0
M  V30 9082 H 875.588 1.59994 1.27526 0
M  V30 9083 H 875.598 1.67426 3.72065 0
M  V30 9084 H 874.273 2.68835 3.17334 0
M  V30 9085 H 872.85 0.911172 3.61597 0
M  V30 9086 N 875.035 -1.20752 1.01276 0
M  V30 9087 C 876.283 -1.89645 0.698505 0
M  V30 9088 C 876.604 -1.78986 -0.773883 0
M  V30 9089 O 875.874 -1.18977 -1.55632 0
M  V30 9090 H 874.454 -0.701992 0.255375 0
M  V30 9091 H 877.116 -1.46668 1.28353 0
M  V30 9092 H 876.212 -2.96364 0.978512 0
M  V30 9093 N 876.513 -0.788492 -1.36457 0
M  V30 9094 C 877.443 -0.200468 -2.32638 0
M  V30 9095 C 878.424 0.664031 -1.56603 0
M  V30 9096 O 879.609 0.598045 -1.84762 0
M  V30 9097 C 876.739 0.666274 -3.40849 0
M  V30 9098 C 875.693 -0.0982574 -4.27887 0
M  V30 9099 C 875.019 0.889018 -5.27258 0
M  V30 9100 C 876.319 -1.28692 -5.06197 0
M  V30 9101 H 878.013 -1.00399 -2.82065 0
M  V30 9102 H 875.559 -0.484237 -1.35614 0
M  V30 9103 H 877.512 1.08757 -4.07124 0
M  V30 9104 H 876.236 1.50249 -2.89987 0
M  V30 9105 H 874.895 -0.500525 -3.63167 0
M  V30 9106 H 874.543 1.72024 -4.7267 0
M  V30 9107 H 874.243 0.381909 -5.86358 0
M  V30 9108 H 875.767 1.30891 -5.96406 0
M  V30 9109 H 877.181 -0.941429 -5.65517 0
M  V30 9110 H 875.578 -1.72726 -5.74705 0
M  V30 9111 H 876.648 -2.08273 -4.37893 0
M  V30 9112 N 877.991 1.48044 -0.54043 0
M  V30 9113 C 879.231 2.04396 -0.012296 0
M  V30 9114 C 879.595 1.40748 1.30591 0
M  V30 9115 O 880.796 1.88048 1.92072 0
M  V30 9116 C 879.067 3.5727 0.0964302 0
M  V30 9117 S 880.626 4.35041 0.573117 0
M  V30 9118 H 877.444 0.710795 -0.0170735 0
M  V30 9119 H 880.046 1.81625 -0.723362 0
M  V30 9120 H 878.75 4.01124 -0.86762 0
M  V30 9121 H 878.281 3.84511 0.83156 0
M  V30 9122 H 880.296 4.6099 1.83583 0
M  V30 9123 N 879.47 0.276058 1.55163 0
M  V30 9124 C 880.717 -0.340455 1.99618 0
M  V30 9125 C 881.045 -1.5579 1.16446 0
M  V30 9126 O 880.3 -1.94433 0.222359 0
M  V30 9127 C 880.599 -0.765744 3.491 0
M  V30 9128 C 880.265 0.347174 4.49561 0
M  V30 9129 C 878.927 0.65276 4.76752 0
M  V30 9130 C 881.279 1.09705 5.09523 0
M  V30 9131 C 878.607 1.71179 5.61173 0
M  V30 9132 C 880.959 2.14581 5.95095 0
M  V30 9133 C 879.623 2.45773 6.20606 0
M  V30 9134 H 878.893 -0.124581 0.730452 0
M  V30 9135 H 881.54 0.389966 1.87487 0
M  V30 9136 H 879.845 -1.57585 3.58712 0
M  V30 9137 H 881.542 -1.25352 3.80904 0
M  V30 9138 H 878.132 0.0988779 4.28486 0
M  V30 9139 H 882.316 0.874223 4.8854 0
M  V30 9140 H 877.572 1.95846 5.79184 0
M  V30 9141 H 881.746 2.7316 6.40591 0
M  V30 9142 H 879.373 3.27969 6.85813 0
M  V30 9143 N 880.948 -1.576 0.00335426 0
M  V30 9144 C 881.911 -2.07576 -0.971838 0
M  V30 9145 C 882.911 -0.985796 -1.27038 0
M  V30 9146 O 884.101 -1.24833 -1.21501 0
M  V30 9147 C 881.233 -2.52003 -2.29581 0
M  V30 9148 H 882.426 -2.95008 -0.539481 0
M  V30 9149 H 879.979 -1.54381 -0.244186 0
M  V30 9150 H 880.714 -1.67825 -2.77498 0
M  V30 9151 H 880.499 -3.31609 -2.09231 0
M  V30 9152 H 881.989 -2.90983 -2.99531 0
M  V30 9153 N 882.426 0.269451 -1.5528 0
M  V30 9154 C 883.674 0.998604 -1.75705 0
M  V30 9155 C 883.995 1.86691 -0.563175 0
M  V30 9156 O 883.265 1.91305 0.421811 0
M  V30 9157 H 881.845 0.371698 -0.647958 0
M  V30 9158 H 884.507 0.292826 -1.92688 0
M  V30 9159 H 883.603 1.63348 -2.6594 0
M  V30 9160 N 883.904 1.48273 0.534124 0
M  V30 9161 C 884.834 1.6538 1.64839 0
M  V30 9162 C 885.815 0.502741 1.62501 0
M  V30 9163 O 887 0.734799 1.79762 0
M  V30 9164 C 884.13 1.68949 3.03436 0
M  V30 9165 C 883.084 2.83513 3.20631 0
M  V30 9166 C 882.41 2.72169 4.60248 0
M  V30 9167 C 883.71 4.24858 3.03797 0
M  V30 9168 H 885.404 2.58663 1.50777 0
M  V30 9169 H 882.95 1.24479 0.723937 0
M  V30 9170 H 884.903 1.79505 3.81256 0
M  V30 9171 H 883.627 0.722415 3.1851 0
M  V30 9172 H 882.286 2.72505 2.45227 0
M  V30 9173 H 881.934 1.7344 4.72152 0
M  V30 9174 H 881.634 3.49042 4.72698 0
M  V30 9175 H 883.158 2.84687 5.40172 0
M  V30 9176 H 884.572 4.36721 3.71413 0
M  V30 9177 H 882.969 5.02697 3.27743 0
M  V30 9178 H 884.039 4.41611 2.0027 0
M  V30 9179 N 885.382 -0.782676 1.36792 0
M  V30 9180 C 886.628 -1.54311 1.3159 0
M  V30 9181 C 886.961 -1.93928 -0.102696 0
M  V30 9182 O 886.236 -1.63233 -1.05761 0
M  V30 9183 C 886.519 -2.81561 2.24489 0
M  V30 9184 C 886.372 -2.48268 3.75078 0
M  V30 9185 C 887.691 -3.83428 2.16034 0
M  V30 9186 H 884.81 -0.559828 0.479335 0
M  V30 9187 H 887.452 -0.898717 1.67401 0
M  V30 9188 H 885.602 -3.36549 1.9408 0
M  V30 9189 H 887.274 -1.99279 4.16036 0
M  V30 9190 H 885.517 -1.81116 3.94182 0
M  V30 9191 H 886.188 -3.39183 4.35499 0
M  V30 9192 H 888.664 -3.37905 2.42815 0
M  V30 9193 H 887.54 -4.70204 2.83194 0
M  V30 9194 H 887.801 -4.26887 1.14976 0
M  V30 9195 N 886.86 -1.21182 -1.00761 0
M  V30 9196 C 888.085 -1.05411 -1.78615 0
M  V30 9197 C 888.51 0.391837 -1.83973 0
M  V30 9198 O 887.868 1.28256 -1.28141 0
M  V30 9199 C 887.916 -1.65285 -3.20489 0
M  V30 9200 O 887.02 -0.896558 -4.02536 0
M  V30 9201 H 886.361 -0.37116 -0.550578 0
M  V30 9202 H 888.891 -1.60669 -1.26676 0
M  V30 9203 H 888.901 -1.69397 -3.71172 0
M  V30 9204 H 887.576 -2.70514 -3.15904 0
M  V30 9205 H 886.153 -0.930335 -3.61108 0
M  V30 9206 N 888.338 1.20213 -1.01915 0
M  V30 9207 C 889.271 2.2181 -0.536243 0
M  V30 9208 C 890.249 1.57144 0.417689 0
M  V30 9209 O 891.433 1.85461 0.337088 0
M  V30 9210 C 888.56 3.37989 0.219303 0
M  V30 9211 C 887.606 4.2097 -0.684571 0
M  V30 9212 S 888.439 4.90216 -2.15519 0
M  V30 9213 C 889.595 6.09814 -1.40988 0
M  V30 9214 H 889.828 2.62429 -1.39709 0
M  V30 9215 H 887.361 1.30305 -0.828254 0
M  V30 9216 H 889.319 4.05335 0.649112 0
M  V30 9217 H 887.98 2.95825 1.05575 0
M  V30 9218 H 887.173 5.03897 -0.101833 0
M  V30 9219 H 886.775 3.58892 -1.05227 0
M  V30 9220 H 889.067 6.73964 -0.691243 0
M  V30 9221 H 890.01 6.72552 -2.21539 0
M  V30 9222 H 890.418 5.5709 -0.911645 0
M  V30 9223 N 889.816 0.795718 1.36037 0
M  V30 9224 C 891.065 0.367575 1.98322 0
M  V30 9225 C 891.378 -1.06823 1.63854 0
M  V30 9226 O 892.584 -1.59895 2.19421 0
M  V30 9227 C 891.04 0.606272 3.54757 0
M  V30 9228 C 890.648 2.0539 3.98144 0
M  V30 9229 C 892.392 0.242947 4.23804 0
M  V30 9230 C 890.299 2.23893 5.47381 0
M  V30 9231 H 889.229 0.133699 0.742052 0
M  V30 9232 H 891.88 0.978242 1.5525 0
M  V30 9233 H 890.262 -0.0741957 3.9593 0
M  V30 9234 H 891.436 2.77129 3.68152 0
M  V30 9235 H 889.751 2.37607 3.41953 0
M  V30 9236 H 892.348 0.359382 5.33491 0
M  V30 9237 H 892.691 -0.809661 4.08351 0
M  V30 9238 H 893.224 0.876899 3.88015 0
M  V30 9239 H 889.963 3.27559 5.6779 0
M  V30 9240 H 889.483 1.56666 5.78978 0
M  V30 9241 H 891.162 2.04914 6.13693 0
M  V30 9242 N 891.294 -1.47756 0.548274 0
M  V30 9243 C 892.571 -1.9555 -0.0443603 0
M  V30 9244 C 892.951 -1.49079 -1.49462 0
M  V30 9245 O 892.299 -0.725538 -2.16675 0
M  V30 9246 C 892.509 -3.48879 0.0918425 0
M  V30 9247 C 893.857 -4.2456 -0.0580879 0
M  V30 9248 O 894.881 -3.56195 0.018946 0
M  V30 9249 O 893.74 -5.46048 -0.222261 0
M  V30 9250 H 890.834 -0.824106 -0.0691235 0
M  V30 9251 H 893.38 -1.58196 0.614166 0
M  V30 9252 H 892.152 -3.7548 1.10137 0
M  V30 9253 H 891.775 -3.92975 -0.604704 0
M  V30 9254 N 892.772 -0.284283 -1.55015 0
M  V30 9255 C 894.183 0.211681 -1.85496 0
M  V30 9256 C 894.534 1.54735 -1.2063 0
M  V30 9257 O 893.659 2.10594 -0.497918 0
M  V30 9258 C 894.254 0.390864 -3.36538 0
M  V30 9259 C 892.813 0.831055 -3.67111 0
M  V30 9260 C 891.96 -0.0703581 -2.77211 0
M  V30 9261 H 894.911 -0.505803 -1.50424 0
M  V30 9262 H 894.932 1.22803 -3.60138 0
M  V30 9263 H 894.444 -0.581409 -3.8372 0
M  V30 9264 H 892.545 1.81447 -3.25434 0
M  V30 9265 H 892.658 0.662026 -4.74504 0
M  V30 9266 H 891.022 0.447528 -2.50737 0
M  V30 9267 H 891.805 -1.03868 -3.2721 0
M  V30 9268 N 894.251 1.57596 -0.0117121 0
M  V30 9269 C 895.662 1.79033 0.529521 0
M  V30 9270 C 896.013 0.920299 1.73277 0
M  V30 9271 O 895.138 0.125934 2.16033 0
M  V30 9272 C 895.733 3.24695 0.967405 0
M  V30 9273 C 894.292 3.47188 1.45387 0
M  V30 9274 C 893.439 2.74245 0.410466 0
M  V30 9275 H 896.39 1.56908 -0.237836 0
M  V30 9276 H 896.411 3.33451 1.83278 0
M  V30 9277 H 895.923 3.87992 0.0914605 0
M  V30 9278 H 894.024 2.89121 2.35032 0
M  V30 9279 H 894.137 4.55886 1.47325 0
M  V30 9280 H 892.501 2.39209 0.874721 0
M  V30 9281 H 893.284 3.40248 -0.456713 0
M  V30 9282 N 895.729 -0.261212 1.5542 0
M  V30 9283 C 897.145 -0.609012 1.47524 0
M  V30 9284 C 897.345 -1.88986 0.699042 0
M  V30 9285 O 896.401 -2.51517 0.222628 0
M  V30 9286 C 897.714 -0.725025 2.91828 0
M  V30 9287 C 899.262 -0.818302 3.02114 0
M  V30 9288 C 899.737 -0.965996 4.47697 0
M  V30 9289 N 901.228 -1.03123 4.51575 0
M  V30 9290 C 901.963 -1.16451 5.6145 0
M  V30 9291 N 901.459 -1.26425 6.81167 0
M  V30 9292 N 903.252 -1.19655 5.49217 0
M  V30 9293 H 895.403 0.579807 2.04333 0
M  V30 9294 H 897.666 0.198072 0.927077 0
M  V30 9295 H 897.372 0.145871 3.51397 0
M  V30 9296 H 897.246 -1.60156 3.41511 0
M  V30 9297 H 899.633 -1.67966 2.42634 0
M  V30 9298 H 899.714 0.0830895 2.55665 0
M  V30 9299 H 899.358 -0.109251 5.07782 0
M  V30 9300 H 899.288 -1.88221 4.91813 0
M  V30 9301 H 901.779 -0.966072 3.65343 0
M  V30 9302 H 902.092 -1.36462 7.60656 0
M  V30 9303 H 900.437 -1.23408 6.83956 0
M  V30 9304 H 903.628 -1.11501 4.54626 0
M  V30 9305 H 903.801 -1.29698 6.34888 0
M  V30 9306 N 897.207 -1.48554 -0.526253 0
M  V30 9307 C 898.17 -1.62868 -1.61266 0
M  V30 9308 C 899.17 -0.501762 -1.52771 0
M  V30 9309 O 900.36 -0.76764 -1.56374 0
M  V30 9310 C 897.492 -1.60238 -3.00893 0
M  V30 9311 H 898.685 -2.59742 -1.49913 0
M  V30 9312 H 896.238 -1.37207 -0.748595 0
M  V30 9313 H 896.973 -0.648545 -3.17749 0
M  V30 9314 H 896.758 -2.42054 -3.08468 0
M  V30 9315 H 898.248 -1.73455 -3.79872 0
M  V30 9316 N 898.685 0.775411 -1.37205 0
M  V30 9317 C 899.913 1.56446 -1.35397 0
M  V30 9318 C 900.328 1.887 0.0615437 0
M  V30 9319 O 899.685 1.51178 1.02233 0
M  V30 9320 C 899.736 2.87697 -2.18889 0
M  V30 9321 O 899.457 2.56828 -3.54924 0
M  V30 9322 C 900.958 3.81944 -2.25019 0
M  V30 9323 H 898.178 0.484792 -0.463916 0
M  V30 9324 H 900.722 0.961346 -1.80495 0
M  V30 9325 H 898.877 3.44442 -1.7731 0
M  V30 9326 H 899.291 3.40851 -3.98649 0
M  V30 9327 H 900.765 4.71055 -2.87769 0
M  V30 9328 H 901.242 4.20811 -1.25757 0
M  V30 9329 H 901.848 3.3113 -2.66895 0
M  V30 9330 N 900.163 1.21714 1.00117 0
M  V30 9331 C 901.409 1.03823 1.74208 0
M  V30 9332 C 901.742 -0.426733 1.89454 0
M  V30 9333 O 901.017 -1.31658 1.43166 0
M  V30 9334 C 901.3 1.74047 3.15246 0
M  V30 9335 C 901.153 3.28087 3.077 0
M  V30 9336 C 902.472 1.48614 4.14249 0
M  V30 9337 H 899.591 0.378573 0.632338 0
M  V30 9338 H 902.233 1.49942 1.16694 0
M  V30 9339 H 900.383 1.3484 3.64349 0
M  V30 9340 H 902.055 3.76686 2.6628 0
M  V30 9341 H 900.298 3.58191 2.44707 0
M  V30 9342 H 900.969 3.72392 4.07466 0
M  V30 9343 H 903.445 1.82656 3.73866 0
M  V30 9344 H 902.321 2.00257 5.11066 0
M  V30 9345 H 902.582 0.416957 4.40129 0
M  V30 9346 N 901.641 -1.19671 1.02551 0
M  V30 9347 C 903.052 -1.70964 0.750208 0
M  V30 9348 C 903.403 -1.82095 -0.730461 0
M  V30 9349 O 902.528 -1.48974 -1.56958 0
M  V30 9350 C 903.123 -3.10516 1.35518 0
M  V30 9351 C 901.682 -3.59083 1.12854 0
M  V30 9352 C 900.829 -2.36041 1.45534 0
M  V30 9353 H 903.78 -1.04559 1.19386 0
M  V30 9354 H 903.801 -3.73028 0.750378 0
M  V30 9355 H 903.313 -3.02383 2.43282 0
M  V30 9356 H 901.414 -3.72536 0.0689627 0
M  V30 9357 H 901.527 -4.43395 1.81488 0
M  V30 9358 H 899.891 -2.39214 0.87458 0
M  V30 9359 H 900.674 -2.3054 2.54374 0
M  V30 9360 N 903.119 -0.802921 -1.35613 0
M  V30 9361 C 904.396 -0.304993 -1.93208 0
M  V30 9362 C 904.776 1.20488 -1.73337 0
M  V30 9363 O 904.124 2.00268 -1.10022 0
M  V30 9364 C 904.334 -0.712383 -3.41652 0
M  V30 9365 C 905.682 -0.699785 -4.18794 0
M  V30 9366 O 906.706 -0.653698 -3.5015 0
M  V30 9367 O 905.565 -0.754842 -5.41262 0
M  V30 9368 H 902.659 -0.0789127 -0.823226 0
M  V30 9369 H 905.205 -0.886372 -1.44712 0
M  V30 9370 H 903.977 -1.75316 -3.49829 0
M  V30 9371 H 903.6 -0.105614 -3.9746 0
M  V30 9372 N 904.597 1.47463 -0.556102 0
M  V30 9373 C 905.56 2.28478 0.181743 0
M  V30 9374 C 906.56 1.36886 0.843738 0
M  V30 9375 O 907.75 1.59527 0.69977 0
M  V30 9376 C 904.882 3.16534 1.26566 0
M  V30 9377 H 906.075 2.95182 -0.529892 0
M  V30 9378 H 903.628 1.53134 -0.313005 0
M  V30 9379 H 904.363 2.5452 2.00973 0
M  V30 9380 H 904.148 3.83939 0.795798 0
M  V30 9381 H 905.638 3.77579 1.78393 0
M  V30 9382 N 906.075 0.2925 1.54862 0
M  V30 9383 C 907.321 -0.319736 2.00264 0
M  V30 9384 C 907.654 -1.5419 1.18064 0
M  V30 9385 O 906.929 -1.92821 0.254983 0
M  V30 9386 C 907.212 -0.684753 3.5353 0
M  V30 9387 C 907.065 0.545961 4.46474 0
M  V30 9388 C 908.384 -1.51456 4.13218 0
M  V30 9389 H 905.503 -0.11474 0.728014 0
M  V30 9390 H 908.145 0.402907 1.85679 0
M  V30 9391 H 906.295 -1.30044 3.66089 0
M  V30 9392 H 907.967 1.18448 4.45834 0
M  V30 9393 H 906.21 1.1808 4.1742 0
M  V30 9394 H 906.881 0.246544 5.51449 0
M  V30 9395 H 909.357 -0.994421 4.04043 0
M  V30 9396 H 908.233 -1.73875 5.20633 0
M  V30 9397 H 908.494 -2.5011 3.64551 0
M  V30 9398 N 907.553 -1.57587 0.0200696 0
M  V30 9399 C 908.483 -2.12702 -0.963333 0
M  V30 9400 C 909.464 -1.04094 -1.34531 0
M  V30 9401 O 910.649 -1.31881 -1.42552 0
M  V30 9402 C 907.779 -2.64673 -2.24868 0
M  V30 9403 C 906.733 -3.77987 -2.00772 0
M  V30 9404 C 906.059 -4.16351 -3.35494 0
M  V30 9405 C 907.359 -5.0444 -1.35416 0
M  V30 9406 H 909.053 -2.95121 -0.504363 0
M  V30 9407 H 906.599 -1.41966 -0.24116 0
M  V30 9408 H 908.552 -3.01862 -2.94036 0
M  V30 9409 H 907.276 -1.79403 -2.72914 0
M  V30 9410 H 905.935 -3.41223 -1.34025 0
M  V30 9411 H 905.583 -3.28075 -3.81282 0
M  V30 9412 H 905.283 -4.92705 -3.20181 0
M  V30 9413 H 906.807 -4.56115 -4.05945 0
M  V30 9414 H 908.221 -5.39273 -1.94571 0
M  V30 9415 H 906.618 -5.85732 -1.30529 0
M  V30 9416 H 907.688 -4.83803 -0.325923 0
M  V30 9417 N 909.032 0.252966 -1.55557 0
M  V30 9418 C 909.979 1.3131 -1.89806 0
M  V30 9419 C 910.949 1.48121 -0.751633 0
M  V30 9420 O 912.134 1.62202 -1.00474 0
M  V30 9421 C 909.274 2.66467 -2.19293 0
M  V30 9422 C 908.387 2.57714 -3.46709 0
M  V30 9423 C 907.522 3.85184 -3.65796 0
M  V30 9424 C 906.561 3.71023 -4.86835 0
M  V30 9425 N 905.698 4.90371 -5.02474 0
M  V30 9426 H 910.538 1.01402 -2.80217 0
M  V30 9427 H 908.075 0.489462 -1.38718 0
M  V30 9428 H 910.033 3.45132 -2.34392 0
M  V30 9429 H 908.663 2.94536 -1.32093 0
M  V30 9430 H 907.715 1.70651 -3.39974 0
M  V30 9431 H 909.027 2.43158 -4.35517 0
M  V30 9432 H 908.181 4.72292 -3.80822 0
M  V30 9433 H 906.92 4.0263 -2.7521 0
M  V30 9434 H 905.925 2.82299 -4.71792 0
M  V30 9435 H 907.15 3.55078 -5.78875 0
M  V30 9436 H 905.096 5.0819 -4.14824 0
M  V30 9437 H 905.013 4.78423 -5.85361 0
M  V30 9438 H 906.281 5.78995 -5.21905 0
M  V30 9439 N 910.51 1.48831 0.518367 0
M  V30 9440 C 911.75 1.59045 1.28391 0
M  V30 9441 C 912.114 0.263443 1.90184 0
M  V30 9442 O 913.315 0.24064 2.67721 0
M  V30 9443 C 911.586 2.70536 2.33548 0
M  V30 9444 S 913.145 3.00591 3.19673 0
M  V30 9445 H 909.963 0.561182 0.436573 0
M  V30 9446 H 912.565 1.86409 0.589222 0
M  V30 9447 H 911.269 3.65499 1.86652 0
M  V30 9448 H 910.8 2.4511 3.07708 0
M  V30 9449 H 912.815 2.40779 4.33866 0
M  V30 9450 N 911.988 -0.768124 1.37614 0
M  V30 9451 C 913.404 -1.06919 1.18493 0
M  V30 9452 C 913.604 -2.01486 0.0235753 0
M  V30 9453 O 912.66 -2.4438 -0.635209 0
M  V30 9454 C 913.973 -1.66321 2.50515 0
M  V30 9455 C 915.521 -1.78562 2.57069 0
M  V30 9456 C 915.996 -2.41377 3.89231 0
M  V30 9457 N 917.487 -2.48824 3.90693 0
M  V30 9458 C 918.222 -2.98288 4.89706 0
M  V30 9459 N 917.718 -3.47897 5.99115 0
M  V30 9460 N 919.511 -2.97196 4.77107 0
M  V30 9461 H 911.662 -0.140286 2.11936 0
M  V30 9462 H 913.925 -0.124863 0.939741 0
M  V30 9463 H 913.631 -1.04303 3.35878 0
M  V30 9464 H 913.505 -2.65571 2.67866 0
M  V30 9465 H 915.892 -2.39712 1.72111 0
M  V30 9466 H 915.973 -0.780574 2.43599 0
M  V30 9467 H 915.617 -1.80866 4.74605 0
M  V30 9468 H 915.547 -3.42495 4.00006 0
M  V30 9469 H 918.038 -2.1372 3.1166 0
M  V30 9470 H 918.351 -3.84053 6.70614 0
M  V30 9471 H 916.696 -3.45993 6.02755 0
M  V30 9472 H 919.887 -2.57741 3.90752 0
M  V30 9473 H 920.06 -3.35434 5.54426 0
M  V30 9474 N 913.466 -1.22244 -0.994698 0
M  V30 9475 C 914.694 -1.07218 -1.76952 0
M  V30 9476 C 915.109 0.377388 -1.8499 0
M  V30 9477 O 914.466 1.26157 -1.31874 0
M  V30 9478 C 914.517 -1.67496 -3.20355 0
M  V30 9479 O 914.238 -3.06782 -3.12756 0
M  V30 9480 C 915.739 -1.57721 -4.14294 0
M  V30 9481 H 912.959 -0.375966 -0.555779 0
M  V30 9482 H 915.503 -1.61799 -1.25065 0
M  V30 9483 H 913.658 -1.16982 -3.69315 0
M  V30 9484 H 914.072 -3.35784 -4.02926 0
M  V30 9485 H 915.546 -2.04623 -5.12673 0
M  V30 9486 H 916.023 -0.533434 -4.35949 0
M  V30 9487 H 916.629 -2.07531 -3.71229 0
M  V30 9488 N 914.944 1.19125 -1.03184 0
M  V30 9489 C 915.907 2.20662 -0.619766 0
M  V30 9490 C 916.907 1.57621 0.318179 0
M  V30 9491 O 918.097 1.73885 0.104783 0
M  V30 9492 C 915.229 3.40774 0.0926696 0
M  V30 9493 H 916.422 2.58633 -1.5182 0
M  V30 9494 H 913.975 1.32855 -0.823364 0
M  V30 9495 H 914.71 3.08324 1.00531 0
M  V30 9496 H 914.495 3.87766 -0.581344 0
M  V30 9497 H 915.985 4.15977 0.367792 0
M  V30 9498 N 916.422 0.810101 1.35185 0
M  V30 9499 C 917.67 0.391343 1.98275 0
M  V30 9500 C 917.991 -1.04592 1.64577 0
M  V30 9501 O 917.261 -1.72417 0.93001 0
M  V30 9502 H 915.841 0.141715 0.733434 0
M  V30 9503 H 918.503 1.03672 1.6504 0
M  V30 9504 H 917.599 0.49991 3.0807 0
M  V30 9505 N 917.9 -1.47166 0.563914 0
M  V30 9506 C 919.149 -2.0166 0.0401871 0
M  V30 9507 C 919.462 -1.44303 -1.32046 0
M  V30 9508 O 920.668 -1.905 -1.93448 0
M  V30 9509 C 919.124 -3.59894 0.0213257 0
M  V30 9510 C 918.732 -4.26244 1.37914 0
M  V30 9511 C 920.476 -4.22114 -0.449442 0
M  V30 9512 C 918.383 -5.76503 1.31902 0
M  V30 9513 H 917.313 -0.753916 0.0112534 0
M  V30 9514 H 919.964 -1.69091 0.712766 0
M  V30 9515 H 918.346 -3.89454 -0.717038 0
M  V30 9516 H 919.52 -4.08317 2.13574 0
M  V30 9517 H 917.835 -3.76039 1.78839 0
M  V30 9518 H 920.432 -5.32234 -0.51292 0
M  V30 9519 H 920.775 -3.89749 -1.46291 0
M  V30 9520 H 921.308 -3.9711 0.23427 0
M  V30 9521 H 918.047 -6.13498 2.3087 0
M  V30 9522 H 917.567 -5.96748 0.604324 0
M  V30 9523 H 919.246 -6.38846 1.02392 0
M  V30 9524 N 919.378 -0.300708 -1.54705 0
M  V30 9525 C 920.794 0.0526874 -1.59513 0
M  V30 9526 C 920.994 1.52444 -1.31769 0
M  V30 9527 O 920.05 2.27716 -1.09096 0
M  V30 9528 C 921.363 -0.344989 -2.98714 0
M  V30 9529 C 922.911 -0.29373 -3.11619 0
M  V30 9530 C 923.386 -0.666225 -4.53129 0
M  V30 9531 N 924.877 -0.618749 -4.59049 0
M  V30 9532 C 925.612 -0.879447 -5.66616 0
M  V30 9533 N 925.108 -1.2061 -6.82221 0
M  V30 9534 N 926.901 -0.806528 -5.56284 0
M  V30 9535 H 919.052 -1.25988 -1.71 0
M  V30 9536 H 921.315 -0.510758 -0.798643 0
M  V30 9537 H 921.021 -1.36953 -3.2394 0
M  V30 9538 H 920.895 0.301507 -3.75993 0
M  V30 9539 H 923.282 0.72156 -2.86142 0
M  V30 9540 H 923.363 -0.974844 -2.36496 0
M  V30 9541 H 923.007 -1.67932 -4.79334 0
M  V30 9542 H 922.937 0.0369575 -5.26587 0
M  V30 9543 H 925.428 -0.377202 -3.76013 0
M  V30 9544 H 925.741 -1.391 -7.60178 0
M  V30 9545 H 924.086 -1.24413 -6.83774 0
M  V30 9546 H 927.277 -0.550993 -4.64846 0
M  V30 9547 H 927.45 -1.01307 -6.40032 0
M  V30 9548 N 920.856 1.57574 -0.0284266 0
M  V30 9549 C 922.102 1.92056 0.651327 0
M  V30 9550 C 922.435 0.905092 1.71819 0
M  V30 9551 O 921.71 -0.0722703 1.94366 0
M  V30 9552 C 921.993 3.37021 1.26841 0
M  V30 9553 C 921.846 4.49304 0.211157 0
M  V30 9554 C 923.165 3.81936 2.18662 0
M  V30 9555 H 920.284 0.698428 0.235304 0
M  V30 9556 H 922.926 1.89807 -0.0855435 0
M  V30 9557 H 921.076 3.39068 1.89644 0
M  V30 9558 H 922.748 4.5939 -0.419379 0
M  V30 9559 H 920.991 4.31317 -0.463445 0
M  V30 9560 H 921.662 5.47764 0.682518 0
M  V30 9561 H 924.138 3.8162 1.65847 0
M  V30 9562 H 923.014 4.84064 2.58792 0
M  V30 9563 H 923.275 3.174 3.07749 0
M  V30 9564 N 922.334 -0.244713 1.55689 0
M  V30 9565 C 923.583 -0.970373 1.76824 0
M  V30 9566 C 923.896 -1.86402 0.592764 0
M  V30 9567 O 925.102 -2.62659 0.687186 0
M  V30 9568 C 923.558 -1.77547 3.13058 0
M  V30 9569 C 923.166 -0.929104 4.3826 0
M  V30 9570 C 924.91 -2.49373 3.43531 0
M  V30 9571 C 922.817 -1.73021 5.65524 0
M  V30 9572 H 921.747 -0.366048 0.659185 0
M  V30 9573 H 924.398 -0.224964 1.82116 0
M  V30 9574 H 922.78 -2.56291 3.01879 0
M  V30 9575 H 923.954 -0.183836 4.60433 0
M  V30 9576 H 922.269 -0.324071 4.15137 0
M  V30 9577 H 924.866 -3.09767 4.35831 0
M  V30 9578 H 925.209 -3.21099 2.64955 0
M  V30 9579 H 925.742 -1.77637 3.55935 0
M  V30 9580 H 922.481 -1.05666 6.46927 0
M  V30 9581 H 922.001 -2.45071 5.47449 0
M  V30 9582 H 923.68 -2.2968 6.0486 0
M  V30 9583 N 923.813 -1.49104 -0.510467 0
M  V30 9584 C 924.746 -1.59667 -1.63039 0
M  V30 9585 C 925.724 -0.446145 -1.5636 0
M  V30 9586 O 926.908 -0.660414 -1.76552 0
M  V30 9587 C 924.035 -1.54282 -3.01521 0
M  V30 9588 C 923.081 -2.74415 -3.26494 0
M  V30 9589 S 923.914 -4.3619 -3.10643 0
M  V30 9590 C 925.07 -4.33435 -4.51536 0
M  V30 9591 H 925.303 -2.54407 -1.53833 0
M  V30 9592 H 922.836 -1.37878 -0.694916 0
M  V30 9593 H 924.794 -1.51861 -3.81377 0
M  V30 9594 H 923.455 -0.608458 -3.0815 0
M  V30 9595 H 922.648 -2.66841 -4.27565 0
M  V30 9596 H 922.25 -2.74199 -2.54344 0
M  V30 9597 H 924.542 -4.04571 -5.43441 0
M  V30 9598 H 925.485 -5.34752 -4.64162 0
M  V30 9599 H 925.893 -3.63638 -4.31773 0
M  V30 9600 N 925.291 0.760815 -1.38019 0
M  V30 9601 C 926.537 1.52198 -1.34028 0
M  V30 9602 C 926.87 1.94067 0.0718309 0
M  V30 9603 O 926.145 1.64895 1.0315 0
M  V30 9604 C 926.428 2.77954 -2.2894 0
M  V30 9605 C 926.281 2.42269 -3.7898 0
M  V30 9606 C 927.6 3.79943 -2.22107 0
M  V30 9607 H 924.719 0.552131 -0.488181 0
M  V30 9608 H 927.361 0.871971 -1.6881 0
M  V30 9609 H 925.511 3.33419 -1.9941 0
M  V30 9610 H 927.183 1.92635 -4.19153 0
M  V30 9611 H 925.426 1.74822 -3.97014 0
M  V30 9612 H 926.097 3.32211 -4.4084 0
M  V30 9613 H 928.573 3.34 -2.4816 0
M  V30 9614 H 927.449 4.6564 -2.90639 0
M  V30 9615 H 927.71 4.25004 -1.21753 0
M  V30 9616 N 926.769 1.22769 0.988202 0
M  V30 9617 C 927.997 1.08155 1.76381 0
M  V30 9618 C 928.412 -0.367573 1.85187 0
M  V30 9619 O 927.769 -1.25455 1.32541 0
M  V30 9620 C 927.82 1.69193 3.19462 0
M  V30 9621 O 927.541 3.08437 3.11125 0
M  V30 9622 C 929.042 1.59915 4.13451 0
M  V30 9623 H 926.262 0.378908 0.553778 0
M  V30 9624 H 928.806 1.6246 1.24206 0
M  V30 9625 H 926.961 1.18939 3.6869 0
M  V30 9626 H 927.375 3.37916 4.0114 0
M  V30 9627 H 928.849 2.07339 5.1158 0
M  V30 9628 H 929.326 0.556546 4.3566 0
M  V30 9629 H 929.932 2.09497 3.70123 0
M  V30 9630 N 928.247 -1.18576 1.03814 0
M  V30 9631 C 929.495 -1.88121 0.738574 0
M  V30 9632 C 929.816 -1.80587 -0.735744 0
M  V30 9633 O 929.086 -1.22251 -1.53074 0
M  V30 9634 H 927.666 -0.696417 0.270208 0
M  V30 9635 H 930.328 -1.43912 1.31435 0
M  V30 9636 H 929.424 -2.94222 1.04115 0
M  V30 9637 N 929.725 -0.817259 -1.34754 0
M  V30 9638 C 931.002 -0.325468 -1.92873 0
M  V30 9639 C 931.382 1.18643 -1.74606 0
M  V30 9640 O 930.73 1.9909 -1.1214 0
M  V30 9641 C 930.94 -0.74858 -3.40877 0
M  V30 9642 C 932.288 -0.744165 -4.18028 0
M  V30 9643 O 933.312 -0.690799 -3.49437 0
M  V30 9644 O 932.171 -0.812207 -5.40431 0
M  V30 9645 H 929.265 -0.0876397 -0.822343 0
M  V30 9646 H 931.811 -0.901671 -1.43764 0
M  V30 9647 H 930.583 -1.79017 -3.47949 0
M  V30 9648 H 930.206 -0.147764 -3.97325 0
M  V30 9649 N 931.203 1.46865 -0.571711 0
M  V30 9650 C 932.153 2.27219 0.188503 0
M  V30 9651 C 933.137 1.35221 0.872019 0
M  V30 9652 O 934.329 1.59474 0.76793 0
M  V30 9653 C 931.458 3.21321 1.20862 0
M  V30 9654 C 930.544 4.20803 0.527783 0
M  V30 9655 N 930.935 5.04132 -0.410403 0
M  V30 9656 C 929.233 4.39128 0.779909 0
M  V30 9657 C 929.934 5.76071 -0.80728 0
M  V30 9658 N 928.91 5.43368 -0.158865 0
M  V30 9659 H 932.712 2.89034 -0.532611 0
M  V30 9660 H 930.226 1.57581 -0.392696 0
M  V30 9661 H 932.223 3.77586 1.76733 0
M  V30 9662 H 930.883 2.61065 1.93067 0
M  V30 9663 H 931.894 5.11911 -0.785351 0
M  V30 9664 H 928.571 3.90031 1.48937 0
M  V30 9665 H 929.961 6.53082 -1.57903 0
M  V30 9666 N 932.681 0.308908 1.54543 0
M  V30 9667 C 934.092 -0.182144 1.85809 0
M  V30 9668 C 934.443 -1.52796 1.23076 0
M  V30 9669 O 933.568 -2.09775 0.531358 0
M  V30 9670 C 934.163 -0.337275 3.37117 0
M  V30 9671 C 932.722 -0.772545 3.68387 0
M  V30 9672 C 931.869 0.114451 2.77064 0
M  V30 9673 H 934.82 0.529671 1.496 0
M  V30 9674 H 934.841 -1.17058 3.62046 0
M  V30 9675 H 934.353 0.642382 3.82747 0
M  V30 9676 H 932.454 -1.76247 3.2828 0
M  V30 9677 H 932.567 -0.586453 4.75497 0
M  V30 9678 H 930.931 -0.407581 2.51418 0
M  V30 9679 H 931.714 1.09061 3.25516 0
M  V30 9680 N 934.159 -1.57557 0.0367827 0
M  V30 9681 C 935.408 -1.91291 -0.639569 0
M  V30 9682 C 935.721 -0.915601 -1.72847 0
M  V30 9683 O 936.927 -1.14447 -2.46199 0
M  V30 9684 C 935.383 -3.39697 -1.18888 0
M  V30 9685 C 934.991 -4.47803 -0.132851 0
M  V30 9686 C 936.735 -3.82487 -1.8413 0
M  V30 9687 C 934.642 -5.87311 -0.694229 0
M  V30 9688 H 933.572 -0.713886 -0.242658 0
M  V30 9689 H 936.223 -1.83209 0.103332 0
M  V30 9690 H 934.605 -3.42736 -1.98363 0
M  V30 9691 H 935.779 -4.56334 0.640009 0
M  V30 9692 H 934.094 -4.14264 0.421264 0
M  V30 9693 H 936.691 -4.84076 -2.27101 0
M  V30 9694 H 937.034 -3.17959 -2.68716 0
M  V30 9695 H 937.567 -3.81903 -1.11332 0
M  V30 9696 H 934.306 -6.55401 0.113667 0
M  V30 9697 H 933.826 -5.82371 -1.4354 0
M  V30 9698 H 935.505 -6.36119 -1.1816 0
M  V30 9699 N 935.637 0.236453 -1.55816 0
M  V30 9700 C 936.865 0.980295 -1.82203 0
M  V30 9701 C 937.28 1.7854 -0.613926 0
M  V30 9702 O 936.637 1.77661 0.417491 0
M  V30 9703 C 936.688 1.90982 -3.06933 0
M  V30 9704 O 936.409 1.13728 -4.23081 0
M  V30 9705 C 937.91 2.76879 -3.46198 0
M  V30 9706 H 935.13 0.28799 -0.606055 0
M  V30 9707 H 937.674 0.256182 -2.02889 0
M  V30 9708 H 935.829 2.58808 -2.88266 0
M  V30 9709 H 936.243 1.76694 -4.93842 0
M  V30 9710 H 937.717 3.37831 -4.36548 0
M  V30 9711 H 938.194 3.48522 -2.67262 0
M  V30 9712 H 938.8 2.1449 -3.67252 0
M  V30 9713 N 937.115 1.49373 0.502552 0
M  V30 9714 C 938.078 1.65413 1.58654 0
M  V30 9715 C 939.078 0.526003 1.51953 0
M  V30 9716 O 940.268 0.792421 1.55133 0
M  V30 9717 C 937.4 1.65005 2.98306 0
M  V30 9718 H 938.593 2.62095 1.45762 0
M  V30 9719 H 936.146 1.38381 0.726672 0
M  V30 9720 H 936.881 0.699014 3.16677 0
M  V30 9721 H 936.666 2.46931 3.04578 0
M  V30 9722 H 938.156 1.79477 3.77065 0
M  V30 9723 N 938.594 -0.753485 1.38421 0
M  V30 9724 C 939.541 -1.86723 1.35659 0
M  V30 9725 C 940.511 -1.64648 0.219121 0
M  V30 9726 O 941.696 -1.86313 0.411366 0
M  V30 9727 C 938.836 -3.24023 1.18758 0
M  V30 9728 C 937.949 -3.57928 2.41892 0
M  V30 9729 C 937.084 -4.84532 2.17721 0
M  V30 9730 C 936.123 -5.11224 3.36626 0
M  V30 9731 N 935.26 -6.29023 3.11889 0
M  V30 9732 H 940.1 -1.88419 2.30873 0
M  V30 9733 H 937.637 -0.920934 1.14705 0
M  V30 9734 H 939.595 -4.03252 1.06974 0
M  V30 9735 H 938.225 -3.21654 0.27182 0
M  V30 9736 H 937.277 -2.73541 2.64347 0
M  V30 9737 H 938.589 -3.73581 3.30513 0
M  V30 9738 H 937.743 -5.71704 2.03074 0
M  V30 9739 H 936.482 -4.71018 1.26465 0
M  V30 9740 H 935.487 -4.2252 3.51791 0
M  V30 9741 H 936.712 -5.26635 4.28757 0
M  V30 9742 H 934.658 -6.16832 2.2328 0
M  V30 9743 H 934.575 -6.45177 3.9406 0
M  V30 9744 H 935.843 -7.19083 3.00898 0
M  V30 9745 N 940.072 -1.23292 -0.981677 0
M  V30 9746 C 941.035 -1.01417 -2.05542 0
M  V30 9747 C 942.035 0.0235354 -1.60783 0
M  V30 9748 O 943.225 -0.216082 -1.72855 0
M  V30 9749 C 940.357 -0.534239 -3.36688 0
M  V30 9750 H 941.55 -1.96702 -2.26381 0
M  V30 9751 H 939.103 -1.05318 -1.1549 0
M  V30 9752 H 939.838 0.422452 -3.21537 0
M  V30 9753 H 939.623 -1.28304 -3.70514 0
M  V30 9754 H 941.113 -0.40179 -4.15663 0
M  V30 9755 N 941.55 1.18024 -1.04442 0
M  V30 9756 C 942.799 1.8743 -0.745185 0
M  V30 9757 C 943.112 1.81459 0.730206 0
M  V30 9758 O 944.318 2.46263 1.1431 0
M  V30 9759 C 942.774 3.36266 -1.28271 0
M  V30 9760 C 942.382 3.50757 -2.787 0
M  V30 9761 C 944.126 4.11048 -1.06018 0
M  V30 9762 C 942.033 4.93573 -3.25791 0
M  V30 9763 H 940.963 0.702038 -0.27506 0
M  V30 9764 H 943.614 1.33333 -1.26073 0
M  V30 9765 H 941.996 3.89853 -0.695002 0
M  V30 9766 H 943.17 3.07423 -3.43261 0
M  V30 9767 H 941.485 2.89385 -2.99408 0
M  V30 9768 H 944.082 5.16395 -1.38711 0
M  V30 9769 H 944.425 4.163 0.00241716 0
M  V30 9770 H 944.958 3.63644 -1.61269 0
M  V30 9771 H 941.697 4.93491 -4.31447 0
M  V30 9772 H 941.217 5.37607 -2.65968 0
M  V30 9773 H 942.896 5.62307 -3.20031 0
M  V30 9774 N 943.028 0.824394 1.34319 0
M  V30 9775 C 943.991 0.252696 2.27803 0
M  V30 9776 C 944.991 -0.570254 1.50349 0
M  V30 9777 O 946.181 -0.386145 1.69866 0
M  V30 9778 C 943.313 -0.645575 3.34731 0
M  V30 9779 H 944.506 1.07742 2.79878 0
M  V30 9780 H 942.059 0.596367 1.44475 0
M  V30 9781 H 942.794 -1.4933 2.87873 0
M  V30 9782 H 942.579 -0.0569478 3.92059 0
M  V30 9783 H 944.069 -1.03933 4.0446 0
M  V30 9784 N 944.506 -1.46559 0.579492 0
M  V30 9785 C 945.469 -2.28739 -0.145371 0
M  V30 9786 C 946.469 -1.38211 -0.821854 0
M  V30 9787 O 947.659 -1.6062 -0.674302 0
M  V30 9788 C 944.791 -3.18507 -1.21515 0
M  V30 9789 H 945.984 -2.94301 0.576786 0
M  V30 9790 H 943.537 -1.52616 0.337327 0
M  V30 9791 H 944.272 -2.57685 -1.96899 0
M  V30 9792 H 944.057 -3.85157 -0.734616 0
M  V30 9793 H 945.547 -3.80369 -1.72363 0
M  V30 9794 N 945.984 -0.3171 -1.54377 0
M  V30 9795 C 947.209 0.292311 -2.0533 0
M  V30 9796 C 947.634 1.45503 -1.19207 0
M  V30 9797 O 946.992 1.80197 -0.199721 0
M  V30 9798 C 947.04 0.710787 -3.53525 0
M  V30 9799 O 946.144 1.81387 -3.70368 0
M  V30 9800 H 945.485 0.0539976 -0.661801 0
M  V30 9801 H 948.015 -0.463629 -1.99278 0
M  V30 9802 H 948.025 0.995216 -3.95676 0
M  V30 9803 H 946.7 -0.139668 -4.15665 0
M  V30 9804 H 945.277 1.52875 -3.40123 0
M  V30 9805 N 947.462 1.57535 -0.0451378 0
M  V30 9806 C 948.708 1.92736 0.630921 0
M  V30 9807 C 949.041 0.923265 1.70849 0
M  V30 9808 O 948.316 -0.0516512 1.94431 0
M  V30 9809 C 948.599 3.38348 1.23259 0
M  V30 9810 C 948.452 4.49503 0.16349 0
M  V30 9811 C 949.771 3.84233 2.14599 0
M  V30 9812 H 946.89 0.700884 0.227883 0
M  V30 9813 H 949.532 1.89706 -0.10567 0
M  V30 9814 H 947.682 3.41061 1.86037 0
M  V30 9815 H 949.354 4.58919 -0.46808 0
M  V30 9816 H 947.597 4.30802 -0.509166 0
M  V30 9817 H 948.268 5.48457 0.624382 0
M  V30 9818 H 950.744 3.83358 1.6179 0
M  V30 9819 H 949.62 4.86781 2.53644 0
M  V30 9820 H 949.881 3.20646 3.04366 0
M  V30 9821 N 948.94 -0.228186 1.55939 0
M  V30 9822 C 950.188 -0.951668 1.78291 0
M  V30 9823 C 950.509 -1.85132 0.612474 0
M  V30 9824 O 949.779 -1.92356 -0.370942 0
M  V30 9825 H 948.359 -0.354388 0.657585 0
M  V30 9826 H 951.021 -0.241635 1.93396 0
M  V30 9827 H 950.117 -1.56239 2.70177 0
M  V30 9828 N 950.418 -1.49637 -0.494624 0
M  V30 9829 C 951.667 -1.58691 -1.24499 0
M  V30 9830 C 951.98 -0.281763 -1.9356 0
M  V30 9831 O 953.186 -0.250925 -2.70338 0
M  V30 9832 C 951.642 -2.8002 -2.26091 0
M  V30 9833 C 951.25 -4.17318 -1.6294 0
M  V30 9834 C 952.994 -2.98407 -3.01916 0
M  V30 9835 C 950.901 -5.29862 -2.62679 0
M  V30 9836 H 949.831 -0.590888 -0.468367 0
M  V30 9837 H 952.482 -1.76034 -0.518112 0
M  V30 9838 H 950.864 -2.56185 -3.01969 0
M  V30 9839 H 952.038 -4.51315 -0.930108 0
M  V30 9840 H 950.353 -4.04342 -0.994819 0
M  V30 9841 H 952.95 -3.79658 -3.76516 0
M  V30 9842 H 953.293 -2.09214 -3.5991 0
M  V30 9843 H 953.826 -3.22312 -2.33152 0
M  V30 9844 H 950.565 -6.21134 -2.09458 0
M  V30 9845 H 950.085 -5.00311 -3.3083 0
M  V30 9846 H 951.764 -5.59461 -3.2498 0
M  V30 9847 N 951.896 0.746133 -1.38819 0
M  V30 9848 C 953.145 1.50085 -1.34749 0
M  V30 9849 C 953.458 1.95516 0.0574786 0
M  V30 9850 O 954.664 2.70601 0.22073 0
M  V30 9851 C 953.12 2.71141 -2.36665 0
M  V30 9852 C 952.728 2.32706 -3.82821 0
M  V30 9853 C 954.472 3.49005 -2.41652 0
M  V30 9854 C 952.379 3.50418 -4.76405 0
M  V30 9855 H 951.309 0.563563 -0.500912 0
M  V30 9856 H 953.96 0.814951 -1.6441 0
M  V30 9857 H 952.342 3.4175 -2.00058 0
M  V30 9858 H 953.516 1.69715 -4.28408 0
M  V30 9859 H 951.831 1.67959 -3.81023 0
M  V30 9860 H 954.428 4.36541 -3.08766 0
M  V30 9861 H 954.771 3.90687 -1.43769 0
M  V30 9862 H 955.304 2.85416 -2.77097 0
M  V30 9863 H 952.043 3.13795 -5.75511 0
M  V30 9864 H 951.563 4.12426 -4.35505 0
M  V30 9865 H 953.242 4.16901 -4.94775 0
M  V30 9866 N 953.375 1.23811 0.975125 0
M  V30 9867 C 954.6 1.10109 1.75757 0
M  V30 9868 C 955.025 -0.342922 1.84948 0
M  V30 9869 O 954.383 -1.24814 1.31496 0
M  V30 9870 C 954.431 1.73724 3.15994 0
M  V30 9871 O 953.535 1.00297 4.00018 0
M  V30 9872 H 952.876 0.385627 0.540544 0
M  V30 9873 H 955.406 1.63971 1.22372 0
M  V30 9874 H 955.416 1.79178 3.6655 0
M  V30 9875 H 954.091 2.78794 3.0862 0
M  V30 9876 H 952.668 1.02575 3.58515 0
M  V30 9877 N 954.853 -1.17469 1.05066 0
M  V30 9878 C 955.763 -2.25089 0.661222 0
M  V30 9879 C 956.779 -1.71086 -0.31712 0
M  V30 9880 O 957.955 -2.00685 -0.169534 0
M  V30 9881 C 955.02 -3.46676 0.0406415 0
M  V30 9882 C 954.081 -4.15771 1.06927 0
M  V30 9883 C 953.314 -5.31553 0.478208 0
M  V30 9884 O 953.537 -5.6593 -0.712714 0
M  V30 9885 O 952.471 -5.89574 1.21185 0
M  V30 9886 H 956.297 -2.60685 1.5581 0
M  V30 9887 H 953.882 -1.24744 0.822147 0
M  V30 9888 H 955.764 -4.203 -0.304312 0
M  V30 9889 H 954.439 -3.1288 -0.829909 0
M  V30 9890 H 953.346 -3.44171 1.46619 0
M  V30 9891 H 954.679 -4.53591 1.91092 0
M  V30 9892 N 956.331 -0.831506 -1.3388 0
M  V30 9893 C 957.579 -0.422837 -1.97627 0
M  V30 9894 C 957.9 1.01961 -1.6622 0
M  V30 9895 O 957.17 1.70916 -0.957323 0
M  V30 9896 H 955.75 -0.153365 -0.731087 0
M  V30 9897 H 958.412 -1.06284 -1.6337 0
M  V30 9898 H 957.508 -0.548858 -3.07236 0
M  V30 9899 N 957.809 1.4625 -0.587256 0
M  V30 9900 C 959.034 2.07252 -0.0784517 0
M  V30 9901 C 959.459 1.43239 1.21919 0
M  V30 9902 O 958.817 0.517791 1.73749 0
M  V30 9903 C 958.865 3.60534 0.0691037 0
M  V30 9904 O 957.969 3.96773 1.12448 0
M  V30 9905 H 957.31 0.660825 -0.064859 0
M  V30 9906 H 959.84 1.87819 -0.811491 0
M  V30 9907 H 959.85 4.0708 0.273826 0
M  V30 9908 H 958.525 4.06516 -0.878514 0
M  V30 9909 H 957.102 3.6193 0.897852 0
M  V30 9910 N 959.287 0.325282 1.54207 0
M  V30 9911 C 960.197 -0.548778 2.28091 0
M  V30 9912 C 961.213 -1.12772 1.32508 0
M  V30 9913 O 962.389 -1.14732 1.65525 0
M  V30 9914 C 959.454 -1.69284 3.02562 0
M  V30 9915 C 958.515 -1.14553 4.13734 0
M  V30 9916 C 957.748 -2.23506 4.84645 0
M  V30 9917 O 957.971 -3.43884 4.55082 0
M  V30 9918 O 956.905 -1.88828 5.71513 0
M  V30 9919 H 960.731 0.0512974 3.03657 0
M  V30 9920 H 958.316 0.0909159 1.49123 0
M  V30 9921 H 960.198 -2.35887 3.49192 0
M  V30 9922 H 958.873 -2.27906 2.2987 0
M  V30 9923 H 957.78 -0.444532 3.71449 0
M  V30 9924 H 959.113 -0.60441 4.88475 0
M  V30 9925 N 960.765 -1.57509 0.0534917 0
M  V30 9926 C 961.993 -1.97098 -0.629298 0
M  V30 9927 C 962.408 -0.931128 -1.64242 0
M  V30 9928 O 961.765 0.0843866 -1.82305 0
M  V30 9929 C 961.816 -3.36767 -1.31415 0
M  V30 9930 O 961.537 -4.36766 -0.341599 0
M  V30 9931 C 963.038 -3.91127 -2.08649 0
M  V30 9932 H 960.258 -0.648611 -0.171886 0
M  V30 9933 H 962.802 -2.04145 0.120479 0
M  V30 9934 H 960.957 -3.30863 -2.01515 0
M  V30 9935 H 961.371 -5.1788 -0.830715 0
M  V30 9936 H 962.845 -4.91129 -2.51985 0
M  V30 9937 H 963.322 -3.26679 -2.9356 0
M  V30 9938 H 963.928 -4.00376 -1.43456 0
M  V30 9939 N 962.243 0.219913 -1.56058 0
M  V30 9940 C 963.489 0.945463 -1.79412 0
M  V30 9941 C 963.822 1.83922 -0.62341 0
M  V30 9942 O 963.097 1.90806 0.377256 0
M  V30 9943 C 963.38 1.783 -3.1286 0
M  V30 9944 C 963.233 0.915626 -4.40382 0
M  V30 9945 C 964.552 2.76045 -3.42764 0
M  V30 9946 H 961.671 0.342288 -0.652693 0
M  V30 9947 H 964.313 0.214235 -1.88788 0
M  V30 9948 H 962.463 2.40642 -3.04998 0
M  V30 9949 H 964.135 0.30882 -4.60265 0
M  V30 9950 H 962.378 0.221124 -4.33236 0
M  V30 9951 H 963.049 1.53607 -5.30197 0
M  V30 9952 H 965.525 2.23838 -3.50764 0
M  V30 9953 H 964.401 3.31748 -4.37304 0
M  V30 9954 H 964.662 3.53866 -2.65012 0
M  V30 9955 N 963.721 1.49897 0.486681 0
M  V30 9956 C 964.631 1.70379 1.6127 0
M  V30 9957 C 965.647 0.58659 1.63814 0
M  V30 9958 O 966.823 0.863044 1.81971 0
M  V30 9959 C 963.888 1.77911 2.97571 0
M  V30 9960 C 962.949 3.01569 3.0554 0
M  V30 9961 C 962.182 3.08732 4.35339 0
M  V30 9962 O 962.405 2.23099 5.2496 0
M  V30 9963 O 961.339 4.01325 4.48578 0
M  V30 9964 H 965.165 2.65799 1.46916 0
M  V30 9965 H 962.75 1.33808 0.664516 0
M  V30 9966 H 964.632 1.85135 3.78554 0
M  V30 9967 H 963.307 0.856722 3.12157 0
M  V30 9968 H 962.214 2.99854 2.23693 0
M  V30 9969 H 963.547 3.93335 2.95886 0
M  V30 9970 N 965.199 -0.738761 1.39212 0
M  V30 9971 C 966.476 -1.48982 1.26742 0
M  V30 9972 C 966.856 -2.10732 -0.12466 0
M  V30 9973 O 966.204 -1.98287 -1.13554 0
M  V30 9974 C 966.414 -2.54427 2.38889 0
M  V30 9975 C 967.762 -3.20915 2.78027 0
M  V30 9976 O 968.786 -2.64738 2.38311 0
M  V30 9977 O 967.645 -4.22558 3.46565 0
M  V30 9978 H 964.739 -0.661395 0.496473 0
M  V30 9979 H 967.285 -0.772907 1.51077 0
M  V30 9980 H 966.057 -2.07151 3.3197 0
M  V30 9981 H 965.68 -3.33682 2.162 0
M  V30 9982 N 966.677 -1.24326 -0.968545 0
M  V30 9983 C 967.926 -1.07647 -1.70572 0
M  V30 9984 C 968.239 0.384821 -1.91777 0
M  V30 9985 O 969.445 0.671782 -2.63058 0
M  V30 9986 C 967.901 -1.87799 -3.07017 0
M  V30 9987 C 967.509 -3.38333 -2.93658 0
M  V30 9988 C 969.253 -1.79647 -3.84613 0
M  V30 9989 C 967.16 -4.10831 -4.25407 0
M  V30 9990 H 966.09 -0.399216 -0.639642 0
M  V30 9991 H 968.741 -1.484 -1.07934 0
M  V30 9992 H 967.123 -1.3986 -3.7048 0
M  V30 9993 H 968.297 -3.93845 -2.39213 0
M  V30 9994 H 966.612 -3.47427 -2.29528 0
M  V30 9995 H 969.209 -2.31116 -4.82172 0
M  V30 9996 H 969.552 -0.761553 -4.09275 0
M  V30 9997 H 970.085 -2.25261 -3.27875 0
M  V30 9998 H 966.824 -5.14679 -4.05939 0
M  V30 9999 H 966.344 -3.60105 -4.79671 0
M  V30 10000 H 968.023 -4.17783 -4.94031 0
M  V30 10001 N 968.156 1.1691 -1.05688 0
M  V30 10002 C 969.119 2.19297 -0.666433 0
M  V30 10003 C 970.119 1.5826 0.284674 0
M  V30 10004 O 971.309 1.74068 0.0678757 0
M  V30 10005 C 968.441 3.40894 0.0203656 0
M  V30 10006 H 969.634 2.55354 -1.57272 0
M  V30 10007 H 967.187 1.31078 -0.851359 0
M  V30 10008 H 967.922 3.10388 0.939686 0
M  V30 10009 H 967.707 3.86446 -0.663464 0
M  V30 10010 H 969.197 4.16664 0.279475 0
M  V30 10011 N 969.634 0.838594 1.33437 0
M  V30 10012 C 970.597 0.276843 2.27522 0
M  V30 10013 C 971.597 -0.554275 1.50945 0
M  V30 10014 O 972.787 -0.368107 1.70266 0
M  V30 10015 C 969.919 -0.610036 3.35397 0
M  V30 10016 H 971.112 1.10705 2.78719 0
M  V30 10017 H 968.665 0.611657 1.43835 0
M  V30 10018 H 969.4 -1.46269 2.89441 0
M  V30 10019 H 969.185 -0.0153615 3.92097 0
M  V30 10020 H 970.675 -0.996368 4.05539 0
M  V30 10021 N 971.112 -1.45937 0.595003 0
M  V30 10022 C 972.528 -1.57507 0.257641 0
M  V30 10023 C 972.728 -1.58829 -1.23998 0
M  V30 10024 O 971.784 -1.51183 -2.02237 0
M  V30 10025 C 973.097 -2.86354 0.917708 0
M  V30 10026 C 974.645 -3.00007 0.892446 0
M  V30 10027 C 975.12 -4.31607 1.53229 0
M  V30 10028 N 976.611 -4.38336 1.49719 0
M  V30 10029 C 977.346 -5.38805 1.96154 0
M  V30 10030 N 976.842 -6.45882 2.50617 0
M  V30 10031 N 978.635 -5.30084 1.86997 0
M  V30 10032 H 970.786 -1.43322 1.56756 0
M  V30 10033 H 973.049 -0.684436 0.655936 0
M  V30 10034 H 972.755 -2.91233 1.97171 0
M  V30 10035 H 972.629 -3.74703 0.433344 0
M  V30 10036 H 975.016 -2.94703 -0.152975 0
M  V30 10037 H 975.097 -2.13103 1.41495 0
M  V30 10038 H 974.741 -4.3767 2.57697 0
M  V30 10039 H 974.671 -5.17308 0.984903 0
M  V30 10040 H 977.162 -3.6156 1.09921 0
M  V30 10041 H 977.475 -7.18774 2.83874 0
M  V30 10042 H 975.82 -6.46668 2.54649 0
M  V30 10043 H 979.011 -4.45337 1.44196 0
M  V30 10044 H 979.184 -6.08237 2.23499 0
M  V30 10045 N 972.59 -0.333456 -1.54032 0
M  V30 10046 C 973.52 0.52051 -2.27625 0
M  V30 10047 C 974.501 1.1111 -1.28797 0
M  V30 10048 O 975.686 1.13438 -1.57625 0
M  V30 10049 C 972.816 1.67663 -3.04149 0
M  V30 10050 C 971.77 1.21487 -4.10396 0
M  V30 10051 C 971.096 2.45872 -4.74817 0
M  V30 10052 C 972.396 0.322603 -5.21303 0
M  V30 10053 H 974.09 -0.0933823 -2.99254 0
M  V30 10054 H 971.636 -0.0463526 -1.43925 0
M  V30 10055 H 973.589 2.28041 -3.54366 0
M  V30 10056 H 972.313 2.31727 -2.30153 0
M  V30 10057 H 970.972 0.633966 -3.61077 0
M  V30 10058 H 970.62 3.0832 -3.97426 0
M  V30 10059 H 970.32 2.15662 -5.46593 0
M  V30 10060 H 971.844 3.06994 -5.27814 0
M  V30 10061 H 973.258 0.832942 -5.67217 0
M  V30 10062 H 971.655 0.112843 -5.99994 0
M  V30 10063 H 972.725 -0.643954 -4.80605 0
M  V30 10064 N 974.068 1.57479 -0.061844 0
M  V30 10065 C 975.484 1.56855 0.294753 0
M  V30 10066 C 975.684 1.07042 1.70717 0
M  V30 10067 O 974.74 0.731817 2.41662 0
M  V30 10068 C 976.053 3.00486 0.113484 0
M  V30 10069 C 977.601 3.1246 0.183778 0
M  V30 10070 C 978.076 4.5799 0.0309092 0
M  V30 10071 N 979.567 4.63119 0.0868393 0
M  V30 10072 C 980.302 5.734 -0.00717446 0
M  V30 10073 N 979.798 6.92628 -0.154144 0
M  V30 10074 N 981.591 5.62078 0.0491763 0
M  V30 10075 H 973.742 1.88176 -0.985058 0
M  V30 10076 H 976.005 0.867051 -0.383309 0
M  V30 10077 H 975.711 3.41004 -0.86075 0
M  V30 10078 H 975.585 3.67029 0.870023 0
M  V30 10079 H 977.972 2.71834 1.14849 0
M  V30 10080 H 978.053 2.48574 -0.603697 0
M  V30 10081 H 977.697 4.99303 -0.930526 0
M  V30 10082 H 977.627 5.19895 0.837664 0
M  V30 10083 H 980.118 3.77374 0.199245 0
M  V30 10084 H 980.431 7.72492 -0.218296 0
M  V30 10085 H 978.776 6.94742 -0.189372 0
M  V30 10086 H 981.967 4.67817 0.162626 0
M  V30 10087 H 982.14 6.47994 -0.0275478 0
M  V30 10088 N 975.546 -0.211634 1.56173 0
M  V30 10089 C 976.792 -0.935935 1.79911 0
M  V30 10090 C 977.125 -1.83589 0.633155 0
M  V30 10091 O 976.4 -1.91004 -0.367132 0
M  V30 10092 C 976.683 -1.76638 3.13801 0
M  V30 10093 C 976.536 -0.892259 4.40861 0
M  V30 10094 C 977.855 -2.74224 3.44223 0
M  V30 10095 H 974.974 -0.338822 0.654499 0
M  V30 10096 H 977.616 -0.20422 1.88899 0
M  V30 10097 H 975.766 -2.39021 3.0627 0
M  V30 10098 H 977.438 -0.284407 4.60422 0
M  V30 10099 H 975.681 -0.198145 4.33347 0
M  V30 10100 H 976.352 -1.50793 5.31004 0
M  V30 10101 H 978.828 -2.21975 3.51946 0
M  V30 10102 H 977.704 -3.29424 4.39057 0
M  V30 10103 H 977.965 -3.52455 2.66885 0
M  V30 10104 N 977.024 -1.50153 -0.478725 0
M  V30 10105 C 978.435 -1.53706 -1.05978 0
M  V30 10106 C 978.786 -0.336112 -1.933 0
M  V30 10107 O 977.911 0.551803 -2.09246 0
M  V30 10108 C 978.506 -2.78541 -1.92874 0
M  V30 10109 C 977.065 -2.848 -2.46102 0
M  V30 10110 C 976.212 -2.47902 -1.24257 0
M  V30 10111 H 979.163 -1.56528 -0.261664 0
M  V30 10112 H 979.184 -2.59964 -2.77847 0
M  V30 10113 H 978.696 -3.6593 -1.29293 0
M  V30 10114 H 976.797 -2.01744 -3.13257 0
M  V30 10115 H 976.91 -3.87511 -2.81731 0
M  V30 10116 H 975.274 -2.0017 -1.57493 0
M  V30 10117 H 976.057 -3.3759 -0.62351 0
M  V30 10118 N 978.502 0.731368 -1.39602 0
M  V30 10119 C 979.748 1.49321 -1.37227 0
M  V30 10120 C 980.081 1.94176 0.0306502 0
M  V30 10121 O 979.356 1.67046 0.996294 0
M  V30 10122 C 979.639 2.73035 -2.34784 0
M  V30 10123 C 979.492 2.34176 -3.84033 0
M  V30 10124 C 980.811 3.75146 -2.30116 0
M  V30 10125 H 977.93 0.541652 -0.499783 0
M  V30 10126 H 980.572 0.835968 -1.70621 0
M  V30 10127 H 978.722 3.29114 -2.06437 0
M  V30 10128 H 980.394 1.83701 -4.23145 0
M  V30 10129 H 978.637 1.66361 -4.00633 0
M  V30 10130 H 979.308 3.22786 -4.47787 0
M  V30 10131 H 981.784 3.28661 -2.55189 0
M  V30 10132 H 980.66 4.5937 -3.00451 0
M  V30 10133 H 980.921 4.22326 -1.30741 0
M  V30 10134 N 979.98 1.24838 0.961938 0
M  V30 10135 C 981.257 0.99939 1.68141 0
M  V30 10136 C 981.637 -0.476588 2.0565 0
M  V30 10137 O 980.985 -1.45224 1.76415 0
M  V30 10138 C 981.195 1.92797 2.90913 0
M  V30 10139 C 982.543 2.20219 3.63027 0
M  V30 10140 O 983.567 1.90496 3.00981 0
M  V30 10141 O 982.426 2.70725 4.74731 0
M  V30 10142 H 979.52 0.37842 0.735342 0
M  V30 10143 H 982.066 1.35961 1.01551 0
M  V30 10144 H 980.838 2.92492 2.59931 0
M  V30 10145 H 980.461 1.57127 3.65235 0
M  V30 10146 N 981.458 -1.16348 1.06306 0
M  V30 10147 C 982.39 -2.20316 0.631929 0
M  V30 10148 C 983.403 -1.59819 -0.310133 0
M  V30 10149 O 984.592 -1.78213 -0.101103 0
M  V30 10150 C 981.692 -3.3877 -0.0937645 0
M  V30 10151 C 980.865 -4.28826 0.861816 0
M  V30 10152 C 979.924 -5.25908 0.175346 0
M  V30 10153 O 978.95 -5.63363 0.813039 0
M  V30 10154 N 980.152 -5.70307 -1.08305 0
M  V30 10155 H 982.917 -2.57925 1.52626 0
M  V30 10156 H 980.478 -1.31358 0.946392 0
M  V30 10157 H 982.47 -4.00759 -0.563412 0
M  V30 10158 H 981.04 -2.99666 -0.889904 0
M  V30 10159 H 980.26 -3.64098 1.51083 0
M  V30 10160 H 981.548 -4.85875 1.51007 0
M  V30 10161 H 980.946 -5.4197 -1.62127 0
M  V30 10162 H 979.503 -6.34387 -1.49656 0
M  V30 10163 N 982.937 -0.845659 -1.3299 0
M  V30 10164 C 984.183 -0.445311 -1.9785 0
M  V30 10165 C 984.516 0.994476 -1.66805 0
M  V30 10166 O 983.791 1.69636 -0.95151 0
M  V30 10167 C 984.074 -0.674371 -3.53729 0
M  V30 10168 C 983.927 -2.16192 -3.94437 0
M  V30 10169 C 985.246 -0.124908 -4.39923 0
M  V30 10170 H 982.365 -0.163269 -0.718688 0
M  V30 10171 H 985.007 -1.06242 -1.5752 0
M  V30 10172 H 983.157 -0.149091 -3.88214 0
M  V30 10173 H 984.829 -2.75259 -3.70176 0
M  V30 10174 H 983.072 -2.64386 -3.43922 0
M  V30 10175 H 983.743 -2.27292 -5.03033 0
M  V30 10176 H 986.219 -0.573986 -4.12122 0
M  V30 10177 H 985.095 -0.314816 -5.47996 0
M  V30 10178 H 985.356 0.971758 -4.31288 0
M  V30 10179 N 984.415 1.45619 -0.602734 0
M  V30 10180 C 985.363 2.32228 0.131484 0
M  V30 10181 C 986.357 1.45681 0.864484 0
M  V30 10182 O 987.563 1.62193 0.7806 0
M  V30 10183 H 983.938 0.7495 0.0612638 0
M  V30 10184 H 985.909 2.91941 -0.617496 0
M  V30 10185 C 984.658 3.29213 1.11866 0
M  V30 10186 H 983.981 3.95801 0.564061 0
M  V30 10187 H 985.421 3.92554 1.60242 0
M  V30 10188 C 983.88 2.56028 2.18978 0
M  V30 10189 O 984.41 2.33806 3.26646 0
M  V30 10190 N 982.616 2.16245 1.94129 0
M  V30 10191 H 982.163 2.34518 1.06579 0
M  V30 10192 H 982.121 1.67601 2.66003 0
M  V30 10193 N 985.893 0.34162 1.53853 0
M  V30 10194 C 987.309 -0.0103769 1.59597 0
M  V30 10195 C 987.509 -1.48897 1.35764 0
M  V30 10196 O 986.565 -2.24743 1.15095 0
M  V30 10197 C 987.878 0.424067 2.97695 0
M  V30 10198 C 989.426 0.376247 3.1073 0
M  V30 10199 C 989.901 0.786129 4.51203 0
M  V30 10200 N 991.392 0.74024 4.57247 0
M  V30 10201 C 992.127 1.02937 5.64085 0
M  V30 10202 N 991.623 1.38655 6.78783 0
M  V30 10203 N 993.416 0.953734 5.5395 0
M  V30 10204 H 985.567 1.30477 1.67599 0
M  V30 10205 H 987.83 0.531753 0.78482 0
M  V30 10206 H 987.536 1.45493 3.20195 0
M  V30 10207 H 987.41 -0.201713 3.7666 0
M  V30 10208 H 989.797 -0.645441 2.87955 0
M  V30 10209 H 989.878 1.0372 2.33828 0
M  V30 10210 H 989.522 1.80582 4.74713 0
M  V30 10211 H 989.452 0.102671 5.265 0
M  V30 10212 H 991.943 0.476763 3.7488 0
M  V30 10213 H 992.256 1.59206 7.56223 0
M  V30 10214 H 990.601 1.42498 6.80235 0
M  V30 10215 H 993.792 0.674044 4.63222 0
M  V30 10216 H 993.965 1.18241 6.37121 0
M  V30 10217 N 987.371 -1.57444 0.0701946 0
M  V30 10218 C 988.318 -2.12631 -0.897599 0
M  V30 10219 C 989.288 -1.03841 -1.29639 0
M  V30 10220 O 990.473 -1.31495 -1.38253 0
M  V30 10221 C 987.613 -2.6911 -2.16041 0
M  V30 10222 C 986.726 -3.9205 -1.8144 0
M  V30 10223 C 985.861 -4.36778 -3.02321 0
M  V30 10224 C 984.9 -5.52371 -2.63729 0
M  V30 10225 N 984.037 -5.92065 -3.77364 0
M  V30 10226 H 988.877 -2.95024 -0.420104 0
M  V30 10227 H 986.414 -1.45792 -0.195716 0
M  V30 10228 H 988.372 -2.99963 -2.89962 0
M  V30 10229 H 987.002 -1.89484 -2.61334 0
M  V30 10230 H 986.054 -3.67669 -0.975896 0
M  V30 10231 H 987.366 -4.76011 -1.49046 0
M  V30 10232 H 986.52 -4.69285 -3.84521 0
M  V30 10233 H 985.259 -3.51668 -3.37907 0
M  V30 10234 H 984.264 -5.19517 -1.7995 0
M  V30 10235 H 985.489 -6.39212 -2.29315 0
M  V30 10236 H 983.435 -5.09904 -4.12715 0
M  V30 10237 H 983.352 -6.70762 -3.48733 0
M  V30 10238 H 984.62 -6.29193 -4.60148 0
M  V30 10239 N 988.849 0.203349 -1.56283 0
M  V30 10240 C 990.126 0.950415 -1.70958 0
M  V30 10241 C 990.506 2.01708 -0.622647 0
M  V30 10242 O 989.854 2.25523 0.367635 0
M  V30 10243 C 990.064 1.54434 -3.12971 0
M  V30 10244 C 991.412 2.02964 -3.72949 0
M  V30 10245 O 992.436 1.64293 -3.16048 0
M  V30 10246 O 991.295 2.74097 -4.72793 0
M  V30 10247 H 988.389 0.445154 -0.69697 0
M  V30 10248 H 990.935 0.193695 -1.68591 0
M  V30 10249 H 989.707 0.77505 -3.83547 0
M  V30 10250 H 989.33 2.36611 -3.19532 0
M  V30 10251 N 990.327 1.50405 0.470755 0
M  V30 10252 C 991.29 1.68741 1.5511 0
M  V30 10253 C 992.29 0.558116 1.50804 0
M  V30 10254 O 993.48 0.825149 1.53418 0
M  V30 10255 C 990.612 1.71295 2.94739 0
M  V30 10256 H 991.805 2.65127 1.40169 0
M  V30 10257 H 989.358 1.39891 0.697156 0
M  V30 10258 H 990.093 0.766029 3.15123 0
M  V30 10259 H 989.878 2.53336 2.99271 0
M  V30 10260 H 991.368 1.87434 3.73173 0
M  V30 10261 N 991.805 -0.723954 1.39988 0
M  V30 10262 C 993.221 -1.03095 1.21834 0
M  V30 10263 C 993.421 -2.01309 0.0876647 0
M  V30 10264 O 992.477 -2.46277 -0.55714 0
M  V30 10265 C 993.79 -1.58267 2.5568 0
M  V30 10266 C 995.338 -1.70293 2.6262 0
M  V30 10267 C 995.813 -2.28872 3.96713 0
M  V30 10268 N 997.304 -2.36269 3.98411 0
M  V30 10269 C 998.039 -2.82557 4.98948 0
M  V30 10270 N 997.535 -3.28661 6.0988 0
M  V30 10271 N 999.328 -2.81866 4.86321 0
M  V30 10272 H 991.479 -0.0727891 2.12275 0
M  V30 10273 H 993.742 -0.0949029 0.943238 0
M  V30 10274 H 993.448 -0.935642 3.39026 0
M  V30 10275 H 993.322 -2.56914 2.76179 0
M  V30 10276 H 995.709 -2.34115 1.7965 0
M  V30 10277 H 995.79 -0.70268 2.45959 0
M  V30 10278 H 995.434 -1.65675 4.80119 0
M  V30 10279 H 995.364 -3.29595 4.107 0
M  V30 10280 H 997.855 -2.03697 3.18302 0
M  V30 10281 H 998.168 -3.62524 6.82493 0
M  V30 10282 H 996.513 -3.26641 6.13458 0
M  V30 10283 H 999.704 -2.45179 3.98754 0
M  V30 10284 H 999.877 -3.17626 5.64817 0
M  V30 10285 N 993.283 -1.25346 -0.955304 0
M  V30 10286 C 994.246 -1.05754 -2.03344 0
M  V30 10287 C 995.246 -0.0105743 -1.60797 0
M  V30 10288 O 996.436 -0.252699 -1.72357 0
M  V30 10289 C 993.568 -0.605536 -3.35479 0
M  V30 10290 H 994.761 -2.01459 -2.22158 0
M  V30 10291 H 992.314 -1.07744 -1.1323 0
M  V30 10292 H 993.049 0.354154 -3.2236 0
M  V30 10293 H 992.834 -1.36134 -3.67709 0
M  V30 10294 H 994.324 -0.489867 -4.14717 0
M  V30 10295 N 994.761 1.15782 -1.06922 0
M  V30 10296 C 996.001 1.88135 -0.799043 0
M  V30 10297 C 996.365 1.80203 0.662632 0
M  V30 10298 O 997.566 2.47543 1.04767 0
M  V30 10299 C 995.837 3.3339 -1.28786 0
M  V30 10300 S 997.396 4.23525 -1.1477 0
M  V30 10301 H 994.214 0.649313 -0.289679 0
M  V30 10302 H 996.816 1.3972 -1.36743 0
M  V30 10303 H 995.52 3.36705 -2.34645 0
M  V30 10304 H 995.051 3.86857 -0.714489 0
M  V30 10305 H 997.066 4.96131 -0.0825264 0
M  V30 10306 N 996.239 0.8527 1.3254 0
M  V30 10307 C 997.485 0.455798 1.97612 0
M  V30 10308 C 997.818 -0.985616 1.6733 0
M  V30 10309 O 997.093 -1.69129 0.960493 0
M  V30 10310 C 997.376 0.69312 3.53366 0
M  V30 10311 C 997.229 2.18281 3.93285 0
M  V30 10312 C 998.548 0.148236 4.3985 0
M  V30 10313 H 995.667 0.167078 0.717812 0
M  V30 10314 H 998.309 1.07076 1.56954 0
M  V30 10315 H 996.459 0.169677 3.88129 0
M  V30 10316 H 998.131 2.77218 3.68711 0
M  V30 10317 H 996.374 2.66206 3.42515 0
M  V30 10318 H 997.045 2.29957 5.01821 0
M  V30 10319 H 999.521 0.595834 4.11812 0
M  V30 10320 H 998.397 0.343873 5.47822 0
M  V30 10321 H 998.658 -0.948872 4.31797 0
M  V30 10322 N 997.718 -1.45297 0.610449 0
M  V30 10323 C 998.967 -2.0143 0.104323 0
M  V30 10324 C 999.28 -1.48431 -1.27388 0
M  V30 10325 O 1000.49 -1.96558 -1.87289 0
M  V30 10326 C 998.942 -3.59644 0.135812 0
M  V30 10327 C 998.55 -4.2164 1.51405 0
M  V30 10328 C 1000.29 -4.2333 -0.314922 0
M  V30 10329 C 998.201 -5.72015 1.50176 0
M  V30 10330 H 997.131 -0.753176 0.035233 0
M  V30 10331 H 999.782 -1.66738 0.7662 0
M  V30 10332 H 998.164 -3.91538 -0.592773 0
M  V30 10333 H 999.338 -4.01315 2.26457 0
M  V30 10334 H 997.653 -3.70159 1.90712 0
M  V30 10335 H 1000.25 -5.33597 -0.343335 0
M  V30 10336 H 1000.59 -3.94206 -1.33817 0
M  V30 10337 H 1001.13 -3.96163 0.360489 0
M  V30 10338 H 997.865 -6.05842 2.50271 0
M  V30 10339 H 997.385 -5.94523 0.793869 0
M  V30 10340 H 999.064 -6.35266 1.22665 0
M  V30 10341 N 999.196 -0.349774 -1.5367 0
M  V30 10342 C 1000.14 0.519396 -2.26727 0
M  V30 10343 C 1001.14 1.09673 -1.29105 0
M  V30 10344 O 1002.34 1.04176 -1.46791 0
M  V30 10345 H 998.719 0.186192 -0.728585 0
M  V30 10346 H 1000.69 -0.118736 -2.98164 0
M  V30 10347 C 999.439 1.65535 -3.05767 0
M  V30 10348 H 998.762 1.22038 -3.80719 0
M  V30 10349 H 1000.2 2.23856 -3.6009 0
M  V30 10350 C 998.661 2.58844 -2.15642 0
M  V30 10351 O 999.191 3.61254 -1.75665 0
M  V30 10352 N 997.397 2.27671 -1.80595 0
M  V30 10353 H 996.944 1.44429 -2.13302 0
M  V30 10354 H 996.902 2.90359 -1.20577 0
M  V30 10355 N 1000.67 1.57404 -0.0785433 0
M  V30 10356 C 1001.92 1.93361 0.58786 0
M  V30 10357 C 1002.24 0.959856 1.6974 0
M  V30 10358 O 1001.51 0.0091173 1.95898 0
M  V30 10359 H 1000.09 0.713825 0.220141 0
M  V30 10360 H 1002.75 1.94411 -0.137986 0
M  V30 10361 H 1001.85 2.95346 1.00881 0
M  V30 10362 N 1002.15 -0.195058 1.56388 0
M  V30 10363 C 1003.08 -1.26978 1.8961 0
M  V30 10364 C 1004.06 -1.43946 0.756199 0
M  V30 10365 O 1005.25 -1.59335 1.0072 0
M  V30 10366 C 1002.37 -2.63638 2.12632 0
M  V30 10367 C 1001.42 -2.6354 3.35334 0
M  V30 10368 S 1002.25 -2.1497 4.90457 0
M  V30 10369 C 1003.41 -3.53454 5.16547 0
M  V30 10370 H 1003.64 -0.986091 2.8047 0
M  V30 10371 H 1001.17 -0.398552 1.49167 0
M  V30 10372 H 1003.13 -3.42304 2.26579 0
M  V30 10373 H 1001.79 -2.89218 1.22522 0
M  V30 10374 H 1000.99 -3.64027 3.48569 0
M  V30 10375 H 1000.59 -1.92956 3.20381 0
M  V30 10376 H 1002.88 -4.49318 5.0707 0
M  V30 10377 H 1003.82 -3.45113 6.18306 0
M  V30 10378 H 1004.23 -3.48368 4.44185 0
M  V30 10379 N 1003.63 -1.50653 -0.462772 0
M  V30 10380 C 1004.56 -1.66286 -1.5774 0
M  V30 10381 C 1005.57 -0.544094 -1.53439 0
M  V30 10382 O 1006.76 -0.817566 -1.58676 0
M  V30 10383 C 1003.86 -1.63893 -2.96635 0
M  V30 10384 C 1003.04 -2.91939 -3.25716 0
M  V30 10385 C 1002.1 -2.82076 -4.44206 0
M  V30 10386 O 1001.12 -3.56032 -4.44106 0
M  V30 10387 N 1002.32 -1.96196 -5.4634 0
M  V30 10388 H 1005.09 -2.6243 -1.44742 0
M  V30 10389 H 1002.65 -1.48221 -0.651326 0
M  V30 10390 H 1004.64 -1.54897 -3.73884 0
M  V30 10391 H 1003.21 -0.75449 -3.03358 0
M  V30 10392 H 1002.43 -3.14998 -2.37002 0
M  V30 10393 H 1003.72 -3.7675 -3.4196 0
M  V30 10394 H 1003.12 -1.35439 -5.49247 0
M  V30 10395 H 1001.67 -1.93097 -6.2254 0
M  V30 10396 N 1005.11 0.71652 -1.4037 0
M  V30 10397 C 1006.04 1.84345 -1.43315 0
M  V30 10398 C 1007.02 1.67537 -0.294186 0
M  V30 10399 O 1008.2 1.87582 -0.502671 0
M  V30 10400 C 1005.33 3.2229 -1.29408 0
M  V30 10401 C 1004.29 3.53769 -2.40897 0
M  V30 10402 C 1003.61 4.90847 -2.12068 0
M  V30 10403 C 1004.91 3.54862 -3.83237 0
M  V30 10404 H 1006.61 1.82138 -2.37626 0
M  V30 10405 H 1004.15 0.874873 -1.14376 0
M  V30 10406 H 1006.11 4.00819 -1.30085 0
M  V30 10407 H 1004.83 3.2507 -0.31573 0
M  V30 10408 H 1003.49 2.77579 -2.39469 0
M  V30 10409 H 1003.14 4.90229 -1.12626 0
M  V30 10410 H 1002.84 5.12875 -2.86762 0
M  V30 10411 H 1004.36 5.71711 -2.14426 0
M  V30 10412 H 1005.78 4.23432 -3.86494 0
M  V30 10413 H 1004.17 3.88416 -4.57442 0
M  V30 10414 H 1005.24 2.54266 -4.12888 0
M  V30 10415 N 1006.59 1.25851 0.948643 0
M  V30 10416 C 1007.53 1.06759 2.04625 0
M  V30 10417 C 1008.5 -0.0251144 1.66081 0
M  V30 10418 O 1009.69 0.133221 1.90334 0
M  V30 10419 C 1006.83 0.698724 3.37952 0
M  V30 10420 C 1005.94 1.8669 3.89578 0
M  V30 10421 C 1005.08 1.44184 5.11258 0
M  V30 10422 C 1004.12 2.57878 5.55126 0
M  V30 10423 N 1003.25 2.16106 6.68014 0
M  V30 10424 H 1008.09 2.00691 2.20289 0
M  V30 10425 H 1005.63 0.999327 1.07944 0
M  V30 10426 H 1007.59 0.465788 4.14592 0
M  V30 10427 H 1006.22 -0.203618 3.22157 0
M  V30 10428 H 1005.27 2.21298 3.09405 0
M  V30 10429 H 1006.58 2.72051 4.18079 0
M  V30 10430 H 1005.74 1.16891 5.95333 0
M  V30 10431 H 1004.47 0.559035 4.84485 0
M  V30 10432 H 1003.48 2.85909 4.69612 0
M  V30 10433 H 1004.7 3.46747 5.83904 0
M  V30 10434 H 1002.65 1.3025 6.42939 0
M  V30 10435 H 1002.57 2.95012 6.96063 0
M  V30 10436 H 1003.84 1.92005 7.55483 0
M  V30 10437 N 1008.06 -1.15214 1.07534 0
M  V30 10438 C 1009.34 -1.82155 0.71267 0
M  V30 10439 C 1009.72 -1.95163 -0.804655 0
M  V30 10440 O 1009.07 -1.50451 -1.71979 0
M  V30 10441 C 1009.28 -3.18392 1.42925 0
M  V30 10442 C 1010.63 -3.94005 1.58256 0
M  V30 10443 O 1011.65 -3.27952 1.39018 0
M  V30 10444 O 1010.51 -5.12436 1.89925 0
M  V30 10445 H 1007.6 -0.78709 0.253808 0
M  V30 10446 H 1010.15 -1.22309 1.17638 0
M  V30 10447 H 1008.92 -3.04034 2.46331 0
M  V30 10448 H 1008.55 -3.85925 0.956439 0
M  V30 10449 N 1009.54 -0.859717 -1.32086 0
M  V30 10450 C 1010.48 -0.252764 -2.26796 0
M  V30 10451 C 1011.45 0.612178 -1.50636 0
M  V30 10452 O 1012.64 0.567865 -1.79743 0
M  V30 10453 C 1009.76 0.643017 -3.3254 0
M  V30 10454 C 1008.81 -0.149211 -4.26239 0
M  V30 10455 S 1009.64 -1.52097 -5.13446 0
M  V30 10456 C 1010.8 -0.631035 -6.22711 0
M  V30 10457 H 1011.03 -1.05563 -2.77928 0
M  V30 10458 H 1008.57 -0.657639 -1.39694 0
M  V30 10459 H 1010.52 1.15418 -3.9394 0
M  V30 10460 H 1009.18 1.41974 -2.80183 0
M  V30 10461 H 1008.38 0.53328 -5.01171 0
M  V30 10462 H 1007.98 -0.592128 -3.69283 0
M  V30 10463 H 1010.27 0.162638 -6.77305 0
M  V30 10464 H 1011.21 -1.35116 -6.95089 0
M  V30 10465 H 1011.62 -0.203131 -5.64134 0
M  V30 10466 N 1011.02 1.44971 -0.618145 0
M  V30 10467 C 1012.3 1.95539 -0.0489895 0
M  V30 10468 C 1012.68 1.5604 1.42179 0
M  V30 10469 O 1012.03 0.82809 2.12967 0
M  V30 10470 C 1012.24 3.48044 -0.258193 0
M  V30 10471 C 1013.58 4.24354 -0.144541 0
M  V30 10472 O 1014.61 3.55699 -0.18887 0
M  V30 10473 O 1013.47 5.46486 -0.038519 0
M  V30 10474 H 1010.56 0.826466 0.0297256 0
M  V30 10475 H 1013.11 1.55086 -0.688944 0
M  V30 10476 H 1011.88 3.69798 -1.27926 0
M  V30 10477 H 1011.5 3.95412 0.416522 0
M  V30 10478 N 1012.5 0.357919 1.53482 0
M  V30 10479 C 1013.91 -0.122938 1.86295 0
M  V30 10480 C 1014.26 -1.48803 1.27875 0
M  V30 10481 O 1013.39 -2.07978 0.597828 0
M  V30 10482 C 1013.98 -0.229853 3.38019 0
M  V30 10483 C 1012.54 -0.654955 3.70658 0
M  V30 10484 C 1011.69 0.202539 2.76559 0
M  V30 10485 H 1014.64 0.576997 1.47839 0
M  V30 10486 H 1014.66 -1.05481 3.65587 0
M  V30 10487 H 1014.17 0.763825 3.80509 0
M  V30 10488 H 1012.27 -1.65714 3.33721 0
M  V30 10489 H 1012.38 -0.43488 4.77122 0
M  V30 10490 H 1010.75 -0.327388 2.52587 0
M  V30 10491 H 1011.53 1.19361 3.21882 0
M  V30 10492 N 1013.98 -1.5736 0.0868897 0
M  V30 10493 C 1015.2 -1.98809 -0.590757 0
M  V30 10494 C 1015.63 -0.965407 -1.61436 0
M  V30 10495 O 1014.98 0.067143 -1.81176 0
M  V30 10496 C 1015.03 -3.39249 -1.22238 0
M  V30 10497 O 1014.14 -3.39706 -2.33824 0
M  V30 10498 H 1013.48 -0.64669 -0.150626 0
M  V30 10499 H 1016.01 -2.03927 0.165873 0
M  V30 10500 H 1016.02 -3.76765 -1.56564 0
M  V30 10501 H 1014.69 -4.13208 -0.472434 0
M  V30 10502 H 1013.27 -3.13977 -2.01178 0
M  V30 10503 N 1015.45 0.186762 -1.56489 0
M  V30 10504 C 1016.36 1.25169 -1.98419 0
M  V30 10505 C 1017.38 1.49329 -0.893124 0
M  V30 10506 O 1018.56 1.61781 -1.19954 0
M  V30 10507 C 1015.62 2.57422 -2.32239 0
M  V30 10508 C 1014.68 2.4126 -3.55095 0
M  V30 10509 C 1013.92 3.67206 -3.87292 0
M  V30 10510 O 1014.14 4.71731 -3.20665 0
M  V30 10511 O 1013.07 3.62238 -4.80695 0
M  V30 10512 H 1016.9 0.925834 -2.89244 0
M  V30 10513 H 1014.48 0.392421 -1.44154 0
M  V30 10514 H 1016.37 3.35466 -2.5503 0
M  V30 10515 H 1015.04 2.89618 -1.44579 0
M  V30 10516 H 1013.95 1.61299 -3.37541 0
M  V30 10517 H 1015.28 2.13994 -4.43247 0
M  V30 10518 N 1016.93 1.50896 0.454776 0
M  V30 10519 C 1017.86 1.73885 1.5584 0
M  V30 10520 C 1018.84 0.588172 1.59607 0
M  V30 10521 O 1020.03 0.829054 1.75614 0
M  V30 10522 C 1017.16 1.84796 2.94054 0
M  V30 10523 C 1016.11 3.00111 3.05152 0
M  V30 10524 C 1015.44 2.96183 4.45174 0
M  V30 10525 C 1016.74 4.40365 2.80849 0
M  V30 10526 H 1018.43 2.66292 1.36854 0
M  V30 10527 H 1015.98 1.28142 0.656936 0
M  V30 10528 H 1017.93 1.99462 3.71204 0
M  V30 10529 H 1016.66 0.890235 3.14233 0
M  V30 10530 H 1015.31 2.85121 2.30438 0
M  V30 10531 H 1014.96 1.98224 4.62295 0
M  V30 10532 H 1014.66 3.73608 4.53532 0
M  V30 10533 H 1016.19 3.1292 5.24322 0
M  V30 10534 H 1017.6 4.55795 3.47741 0
M  V30 10535 H 1016 5.19363 3.00636 0
M  V30 10536 H 1017.07 4.51606 1.76579 0
M  V30 10537 N 1018.41 -0.709066 1.40748 0
M  V30 10538 C 1019.66 -1.47119 1.39585 0
M  V30 10539 C 1019.99 -1.942 0.000245323 0
M  V30 10540 O 1019.26 -1.68609 -0.969593 0
M  V30 10541 C 1019.55 -2.69266 2.39099 0
M  V30 10542 C 1019.4 -2.28037 3.8771 0
M  V30 10543 C 1020.72 -3.71438 2.36055 0
M  V30 10544 H 1017.84 -0.533632 0.508336 0
M  V30 10545 H 1020.48 -0.808718 1.7193 0
M  V30 10546 H 1018.63 -3.25788 2.11647 0
M  V30 10547 H 1020.3 -1.76946 4.26014 0
M  V30 10548 H 1018.55 -1.59966 4.03229 0
M  V30 10549 H 1019.22 -3.15621 4.52866 0
M  V30 10550 H 1021.69 -3.24559 2.60385 0
M  V30 10551 H 1020.57 -4.54532 3.07721 0
M  V30 10552 H 1020.83 -4.20193 1.37443 0
M  V30 10553 N 1019.89 -1.26353 -0.941956 0
M  V30 10554 C 1020.8 -1.09618 -2.07415 0
M  V30 10555 C 1021.82 -0.0298963 -1.73974 0
M  V30 10556 O 1022.99 -0.233466 -2.00042 0
M  V30 10557 C 1020.06 -0.73013 -3.38925 0
M  V30 10558 C 1019.12 -1.87574 -3.86153 0
M  V30 10559 C 1018.35 -1.52706 -5.11387 0
M  V30 10560 O 1018.57 -0.428438 -5.68789 0
M  V30 10561 O 1017.51 -2.36154 -5.53638 0
M  V30 10562 H 1021.33 -2.04598 -2.2444 0
M  V30 10563 H 1018.92 -1.05407 -1.05876 0
M  V30 10564 H 1020.8 -0.538684 -4.17943 0
M  V30 10565 H 1019.48 0.190282 -3.2314 0
M  V30 10566 H 1018.38 -2.12214 -3.08084 0
M  V30 10567 H 1019.72 -2.77585 -4.06457 0
M  V30 10568 N 1021.37 1.14642 -1.08144 0
M  V30 10569 C 1022.33 2.17834 -0.712799 0
M  V30 10570 C 1023.33 1.58828 0.251041 0
M  V30 10571 O 1024.52 1.74173 0.0309381 0
M  V30 10572 C 1021.65 3.4086 -0.0519477 0
M  V30 10573 H 1022.85 2.51961 -1.62653 0
M  V30 10574 H 1020.4 1.29243 -0.878971 0
M  V30 10575 H 1021.13 3.12311 0.873636 0
M  V30 10576 H 1020.92 3.84952 -0.745286 0
M  V30 10577 H 1022.41 4.17163 0.191031 0
M  V30 10578 N 1022.85 0.866709 1.31628 0
M  V30 10579 C 1023.78 0.335762 2.31073 0
M  V30 10580 C 1024.76 -0.571597 1.60209 0
M  V30 10581 O 1025.94 -0.489306 1.87935 0
M  V30 10582 C 1023.07 -0.466416 3.44154 0
M  V30 10583 C 1022.03 0.347561 4.26586 0
M  V30 10584 C 1021.35 -0.5801 5.31544 0
M  V30 10585 C 1022.65 1.57986 4.97833 0
M  V30 10586 H 1024.35 1.16673 2.75731 0
M  V30 10587 H 1021.89 0.56248 1.3256 0
M  V30 10588 H 1023.84 -0.84836 4.12772 0
M  V30 10589 H 1022.57 -1.33086 2.98254 0
M  V30 10590 H 1021.23 0.71141 3.59631 0
M  V30 10591 H 1020.88 -1.44174 4.81895 0
M  V30 10592 H 1020.58 -0.0393965 5.87587 0
M  V30 10593 H 1022.1 -0.958958 6.03023 0
M  V30 10594 H 1023.51 1.26954 5.59067 0
M  V30 10595 H 1021.91 2.05939 5.63657 0
M  V30 10596 H 1022.98 2.3345 4.25005 0
M  V30 10597 N 1024.32 -1.44642 0.625825 0
M  V30 10598 C 1025.74 -1.56925 0.290992 0
M  V30 10599 C 1025.94 -1.61424 -1.20601 0
M  V30 10600 O 1025 -1.55439 -1.98985 0
M  V30 10601 C 1026.31 -2.84343 0.978242 0
M  V30 10602 C 1027.86 -2.98047 0.955882 0
M  V30 10603 C 1028.33 -4.2826 1.62349 0
M  V30 10604 N 1029.82 -4.35062 1.58983 0
M  V30 10605 C 1030.56 -5.34524 2.07538 0
M  V30 10606 N 1030.05 -6.4042 2.6426 0
M  V30 10607 N 1031.85 -5.25998 1.98198 0
M  V30 10608 H 1024 -1.39965 1.59761 0
M  V30 10609 H 1026.26 -0.670368 0.670306 0
M  V30 10610 H 1025.97 -2.86985 2.03304 0
M  V30 10611 H 1025.84 -3.73699 0.512726 0
M  V30 10612 H 1028.23 -2.94961 -0.0904292 0
M  V30 10613 H 1028.31 -2.10053 1.45984 0
M  V30 10614 H 1027.95 -4.32105 2.66923 0
M  V30 10615 H 1027.88 -5.15102 1.09441 0
M  V30 10616 H 1030.37 -3.59147 1.17565 0
M  V30 10617 H 1030.69 -7.1259 2.99056 0
M  V30 10618 H 1029.03 -6.41121 2.68308 0
M  V30 10619 H 1032.22 -4.42178 1.5361 0
M  V30 10620 H 1032.4 -6.03359 2.3635 0
M  V30 10621 N 1025.8 -0.366053 -1.5329 0
M  V30 10622 C 1027.03 0.224236 -2.05681 0
M  V30 10623 C 1027.44 1.42412 -1.23952 0
M  V30 10624 O 1026.8 1.80334 -0.280309 0
M  V30 10625 C 1026.85 0.617266 -3.56191 0
M  V30 10626 O 1026.57 -0.534931 -4.34822 0
M  V30 10627 C 1028.07 1.26589 -4.24841 0
M  V30 10628 H 1025.29 0.0392928 -0.669849 0
M  V30 10629 H 1027.84 -0.52456 -1.97658 0
M  V30 10630 H 1025.99 1.31598 -3.64364 0
M  V30 10631 H 1026.41 -0.217123 -5.2405 0
M  V30 10632 H 1027.88 1.49146 -5.31469 0
M  V30 10633 H 1028.36 2.22633 -3.78591 0
M  V30 10634 H 1028.96 0.6086 -4.20923 0
M  V30 10635 N 1027.28 1.57312 -0.0952337 0
M  V30 10636 C 1028.23 2.10571 0.87428 0
M  V30 10637 C 1029.21 1.02079 1.24374 0
M  V30 10638 O 1030.41 1.28353 1.2188 0
M  V30 10639 C 1027.53 2.68972 2.13329 0
M  V30 10640 C 1026.62 3.84508 1.78926 0
M  V30 10641 N 1027.01 4.92534 1.15082 0
M  V30 10642 C 1025.31 3.94245 2.08535 0
M  V30 10643 C 1026.01 5.73163 0.992937 0
M  V30 10644 N 1024.99 5.22198 1.51029 0
M  V30 10645 H 1028.79 2.91476 0.376727 0
M  V30 10646 H 1026.3 1.62041 0.107974 0
M  V30 10647 H 1028.3 3.05457 2.83728 0
M  V30 10648 H 1026.96 1.89523 2.6365 0
M  V30 10649 H 1027.97 5.11405 0.817621 0
M  V30 10650 H 1024.65 3.25805 2.61069 0
M  V30 10651 H 1026.04 6.70084 0.493641 0
M  V30 10652 N 1028.76 -0.17846 1.56586 0
M  V30 10653 C 1030.17 -0.741599 1.71339 0
M  V30 10654 C 1030.52 -1.83112 0.704579 0
M  V30 10655 O 1029.64 -2.15975 -0.135557 0
M  V30 10656 C 1030.24 -1.35198 3.10656 0
M  V30 10657 C 1028.8 -1.86202 3.27118 0
M  V30 10658 C 1027.95 -0.738255 2.67292 0
M  V30 10659 H 1030.9 0.0468424 1.58631 0
M  V30 10660 H 1030.92 -2.2216 3.0891 0
M  V30 10661 H 1030.43 -0.558776 3.84056 0
M  V30 10662 H 1028.53 -2.68188 2.58661 0
M  V30 10663 H 1028.64 -2.01237 4.34788 0
M  V30 10664 H 1027.01 -1.15686 2.26912 0
M  V30 10665 H 1027.79 0.0429821 3.43273 0
M  V30 10666 N 1030.24 -1.51135 -0.446768 0
M  V30 10667 C 1031.15 -1.74595 -1.56696 0
M  V30 10668 C 1032.16 -0.629816 -1.62201 0
M  V30 10669 O 1033.34 -0.910987 -1.79619 0
M  V30 10670 C 1030.4 -1.85738 -2.9275 0
M  V30 10671 C 1029.46 -3.09564 -2.97437 0
M  V30 10672 C 1028.7 -3.20165 -4.27001 0
M  V30 10673 O 1028.92 -2.36939 -5.1886 0
M  V30 10674 O 1027.85 -4.13077 -4.3778 0
M  V30 10675 H 1031.68 -2.69601 -1.39817 0
M  V30 10676 H 1029.26 -1.35523 -0.628805 0
M  V30 10677 H 1031.15 -1.95107 -3.73512 0
M  V30 10678 H 1029.82 -0.939184 -3.09776 0
M  V30 10679 H 1028.73 -3.05679 -2.15664 0
M  V30 10680 H 1030.06 -4.01041 -2.85353 0
M  V30 10681 N 1031.71 0.701592 -1.41122 0
M  V30 10682 C 1032.65 1.8257 -1.36907 0
M  V30 10683 C 1033.62 1.6086 -0.237245 0
M  V30 10684 O 1034.81 1.83688 -0.423182 0
M  V30 10685 C 1031.94 3.19149 -1.13408 0
M  V30 10686 C 1030.98 3.59661 -2.29229 0
M  V30 10687 S 1031.81 3.65161 -3.91685 0
M  V30 10688 C 1032.97 5.04477 -3.70478 0
M  V30 10689 H 1033.2 1.85867 -2.32036 0
M  V30 10690 H 1030.74 0.869726 -1.27574 0
M  V30 10691 H 1032.69 3.97998 -1.00537 0
M  V30 10692 H 1031.36 3.13468 -0.199099 0
M  V30 10693 H 1030.55 4.58866 -2.08466 0
M  V30 10694 H 1030.15 2.88105 -2.38477 0
M  V30 10695 H 1032.44 5.91803 -3.29811 0
M  V30 10696 H 1033.39 5.3028 -4.69264 0
M  V30 10697 H 1033.79 4.75731 -3.03876 0
M  V30 10698 N 1033.19 1.2685 0.935242 0
M  V30 10699 C 1034.44 1.12912 1.6846 0
M  V30 10700 C 1034.77 -0.325708 1.91449 0
M  V30 10701 O 1034.05 -1.23884 1.49944 0
M  V30 10702 C 1034.33 1.90513 3.05576 0
M  V30 10703 C 1034.18 3.43936 2.89876 0
M  V30 10704 C 1035.5 1.70363 4.05789 0
M  V30 10705 H 1032.62 0.411559 0.611382 0
M  V30 10706 H 1035.26 1.55917 1.08582 0
M  V30 10707 H 1033.41 1.53963 3.5669 0
M  V30 10708 H 1035.08 3.90272 2.45939 0
M  V30 10709 H 1033.33 3.70659 2.25376 0
M  V30 10710 H 1034 3.93467 3.87153 0
M  V30 10711 H 1036.47 2.02217 3.63659 0
M  V30 10712 H 1035.35 2.27066 4.99732 0
M  V30 10713 H 1035.61 0.649674 4.373 0
M  V30 10714 N 1034.67 -1.14067 1.0875 0
M  V30 10715 C 1035.92 -1.85185 0.819317 0
M  V30 10716 C 1036.25 -1.8314 -0.654969 0
M  V30 10717 O 1035.5 -1.25974 -1.49763 0
M  V30 10718 C 1035.8 -3.33273 1.29089 0
M  V30 10719 C 1035.47 -3.55504 2.77359 0
M  V30 10720 C 1034.13 -3.61279 3.17853 0
M  V30 10721 C 1036.48 -3.64041 3.72992 0
M  V30 10722 C 1033.81 -3.73119 4.52768 0
M  V30 10723 C 1036.16 -3.77407 5.07687 0
M  V30 10724 C 1034.82 -3.81433 5.47782 0
M  V30 10725 H 1034.09 -0.67764 0.299809 0
M  V30 10726 H 1036.74 -1.34713 1.36106 0
M  V30 10727 H 1035.05 -3.86049 0.668811 0
M  V30 10728 H 1036.74 -3.86734 1.06009 0
M  V30 10729 H 1033.33 -3.51659 2.45019 0
M  V30 10730 H 1037.52 -3.58866 3.42825 0
M  V30 10731 H 1032.77 -3.74499 4.83281 0
M  V30 10732 H 1036.95 -3.82956 5.81651 0
M  V30 10733 H 1034.57 -3.9036 6.52321 0
M  V30 10734 N 1036.15 -0.873678 -1.31166 0
M  V30 10735 C 1037.11 -0.337069 -2.26708 0
M  V30 10736 C 1038.11 0.51406 -1.52362 0
M  V30 10737 O 1039.3 0.322834 -1.71182 0
M  V30 10738 C 1036.43 0.520897 -3.36897 0
M  V30 10739 H 1037.63 -1.18056 -2.75686 0
M  V30 10740 H 1035.18 -0.649577 -1.42163 0
M  V30 10741 H 1035.91 1.38543 -2.93217 0
M  V30 10742 H 1035.7 -0.0886015 -3.92 0
M  V30 10743 H 1037.19 0.888497 -4.08039 0
M  V30 10744 N 1037.63 1.44308 -0.633487 0
M  V30 10745 C 1039.04 1.56768 -0.29931 0
M  V30 10746 C 1039.24 1.62061 1.19743 0
M  V30 10747 O 1038.3 1.56492 1.98158 0
M  V30 10748 C 1039.61 2.8382 -0.993307 0
M  V30 10749 C 1041.16 2.97536 -0.971674 0
M  V30 10750 C 1041.63 4.27393 -1.64618 0
M  V30 10751 N 1043.13 4.34212 -1.61288 0
M  V30 10752 C 1043.86 5.33415 -2.1037 0
M  V30 10753 N 1043.36 6.3901 -2.67653 0
M  V30 10754 N 1045.15 5.24939 -2.00985 0
M  V30 10755 H 1037.3 1.39115 -1.60501 0
M  V30 10756 H 1039.56 0.666804 -0.673852 0
M  V30 10757 H 1039.27 2.85902 -2.04823 0
M  V30 10758 H 1039.14 3.73422 -0.532537 0
M  V30 10759 H 1041.53 2.95005 0.0747854 0
M  V30 10760 H 1041.61 2.09276 -1.47096 0
M  V30 10761 H 1041.26 4.30683 -2.6921 0
M  V30 10762 H 1041.19 5.14515 -1.12171 0
M  V30 10763 H 1043.68 3.58519 -1.19468 0
M  V30 10764 H 1043.99 7.10994 -3.02831 0
M  V30 10765 H 1042.33 6.39689 -2.71705 0
M  V30 10766 H 1045.53 4.41357 -1.55953 0
M  V30 10767 H 1045.7 6.02097 -2.39547 0
M  V30 10768 N 1039.1 0.374177 1.53094 0
M  V30 10769 C 1040.33 -0.213325 2.05797 0
M  V30 10770 C 1040.75 -1.41753 1.24706 0
M  V30 10771 O 1040.1 -1.80183 0.289868 0
M  V30 10772 C 1040.16 -0.598367 3.56513 0
M  V30 10773 O 1039.88 0.557983 4.34532 0
M  V30 10774 C 1041.38 -1.24334 4.25507 0
M  V30 10775 H 1038.6 -0.0357398 0.670048 0
M  V30 10776 H 1041.14 0.535035 1.97377 0
M  V30 10777 H 1039.3 -1.29663 3.65056 0
M  V30 10778 H 1039.71 0.244911 5.23928 0
M  V30 10779 H 1041.18 -1.46325 5.32253 0
M  V30 10780 H 1041.66 -2.20622 3.79766 0
M  V30 10781 H 1042.27 -0.586269 4.2124 0
M  V30 10782 N 1040.58 -1.57259 0.103575 0
M  V30 10783 C 1041.81 -1.99424 -0.569638 0
M  V30 10784 C 1042.23 -0.982475 -1.60403 0
M  V30 10785 O 1041.59 0.0479231 -1.81237 0
M  V30 10786 C 1041.64 -3.40527 -1.18633 0
M  V30 10787 O 1040.74 -3.42167 -2.30208 0
M  V30 10788 H 1040.08 -0.648251 -0.143759 0
M  V30 10789 H 1042.61 -2.03739 0.187493 0
M  V30 10790 H 1042.62 -3.78404 -1.5256 0
M  V30 10791 H 1041.3 -4.13686 -0.428582 0
M  V30 10792 H 1039.88 -3.16093 -1.97837 0
M  V30 10793 N 1042.06 0.170153 -1.56679 0
M  V30 10794 C 1043.47 0.732502 -1.7173 0
M  V30 10795 C 1043.82 1.82736 -0.71428 0
M  V30 10796 O 1042.95 2.16044 0.124102 0
M  V30 10797 C 1043.54 1.33548 -3.11368 0
M  V30 10798 C 1042.1 1.84464 -3.281 0
M  V30 10799 C 1041.25 0.724069 -2.6768 0
M  V30 10800 H 1044.2 -0.0552543 -1.58604 0
M  V30 10801 H 1044.22 2.20519 -3.10083 0
M  V30 10802 H 1043.73 0.5384 -3.84347 0
M  V30 10803 H 1041.83 2.66813 -2.6008 0
M  V30 10804 H 1041.95 1.98928 -4.35849 0
M  V30 10805 H 1040.31 1.14481 -2.27522 0
M  V30 10806 H 1041.09 -0.0611861 -3.43245 0
M  V30 10807 N 1043.54 1.5137 0.438746 0
M  V30 10808 C 1044.47 1.68774 1.55074 0
M  V30 10809 C 1045.48 0.568436 1.52554 0
M  V30 10810 O 1046.67 0.842707 1.57355 0
M  V30 10811 C 1043.77 1.68592 2.9399 0
M  V30 10812 C 1042.95 2.97084 3.2103 0
M  V30 10813 C 1042 2.89108 4.39663 0
M  V30 10814 O 1041.03 3.63052 4.38385 0
M  V30 10815 N 1042.23 2.04863 5.4315 0
M  V30 10816 H 1045 2.647 1.40549 0
M  V30 10817 H 1042.56 1.49238 0.627663 0
M  V30 10818 H 1044.55 1.60826 3.71372 0
M  V30 10819 H 1043.12 0.802657 3.02119 0
M  V30 10820 H 1042.34 3.18729 2.3196 0
M  V30 10821 H 1043.63 3.82143 3.35923 0
M  V30 10822 H 1043.03 1.4416 5.47023 0
M  V30 10823 H 1041.58 2.02977 6.1939 0
M  V30 10824 N 1045.02 -0.694098 1.41492 0
M  V30 10825 C 1045.95 -1.81943 1.39389 0
M  V30 10826 C 1046.96 -1.6009 0.295836 0
M  V30 10827 O 1048.15 -1.69565 0.557658 0
M  V30 10828 C 1045.25 -3.18731 1.15167 0
M  V30 10829 C 1044.42 -3.67601 2.37041 0
M  V30 10830 C 1043.48 -4.83063 2.08654 0
M  V30 10831 O 1042.51 -4.94603 2.81704 0
M  V30 10832 N 1043.71 -5.70409 1.0777 0
M  V30 10833 H 1046.48 -1.84239 2.36381 0
M  V30 10834 H 1044.04 -0.876475 1.36123 0
M  V30 10835 H 1046.03 -3.93602 0.941264 0
M  V30 10836 H 1044.6 -3.11452 0.267673 0
M  V30 10837 H 1043.82 -2.83622 2.73774 0
M  V30 10838 H 1045.11 -3.96991 3.18239 0
M  V30 10839 H 1044.5 -5.63718 0.473123 0
M  V30 10840 H 1043.06 -6.45172 0.927177 0
M  V30 10841 N 1046.49 -1.27344 -0.928501 0
M  V30 10842 C 1047.44 -1.10001 -2.029 0
M  V30 10843 C 1048.41 -0.00131084 -1.661 0
M  V30 10844 O 1049.6 -0.163485 -1.90098 0
M  V30 10845 C 1046.74 -0.7524 -3.36798 0
M  V30 10846 C 1045.85 -1.92865 -3.86558 0
M  V30 10847 C 1044.98 -1.52299 -5.08899 0
M  V30 10848 C 1044.02 -2.66677 -5.50953 0
M  V30 10849 N 1043.16 -2.26706 -6.64491 0
M  V30 10850 H 1048 -2.0417 -2.17068 0
M  V30 10851 H 1045.54 -1.01637 -1.0634 0
M  V30 10852 H 1047.5 -0.531687 -4.13798 0
M  V30 10853 H 1046.13 0.15234 -3.2244 0
M  V30 10854 H 1045.18 -2.26192 -3.05845 0
M  V30 10855 H 1046.49 -2.78668 -4.13698 0
M  V30 10856 H 1045.64 -1.26348 -5.93398 0
M  V30 10857 H 1044.38 -0.636042 -4.83535 0
M  V30 10858 H 1043.39 -2.93344 -4.65004 0
M  V30 10859 H 1044.61 -3.55992 -5.78313 0
M  V30 10860 H 1042.56 -1.40462 -6.40786 0
M  V30 10861 H 1042.48 -3.06049 -6.91281 0
M  V30 10862 H 1043.74 -2.04 -7.52333 0
M  V30 10863 N 1047.97 1.13488 -1.09353 0
M  V30 10864 C 1048.9 2.20988 -0.75409 0
M  V30 10865 C 1049.88 1.67977 0.267901 0
M  V30 10866 O 1051.07 1.93722 0.136128 0
M  V30 10867 C 1048.2 3.46869 -0.173042 0
M  V30 10868 C 1047.15 4.12965 -1.12446 0
M  V30 10869 C 1046.48 5.33163 -0.405157 0
M  V30 10870 C 1047.78 4.60388 -2.46658 0
M  V30 10871 H 1049.47 2.49639 -1.6529 0
M  V30 10872 H 1047.02 1.19987 -0.796182 0
M  V30 10873 H 1048.97 4.21331 0.0764988 0
M  V30 10874 H 1047.7 3.17611 0.760956 0
M  V30 10875 H 1046.35 3.40469 -1.35927 0
M  V30 10876 H 1046 5.00169 0.532955 0
M  V30 10877 H 1045.7 5.78332 -1.03952 0
M  V30 10878 H 1047.23 6.1038 -0.163899 0
M  V30 10879 H 1048.64 5.26276 -2.27389 0
M  V30 10880 H 1047.04 5.16294 -3.05876 0
M  V30 10881 H 1048.11 3.74949 -3.07476 0
M  V30 10882 N 1049.45 0.880621 1.30701 0
M  V30 10883 C 1050.7 0.497611 1.966 0
M  V30 10884 C 1051.03 -0.949901 1.69383 0
M  V30 10885 O 1050.31 -1.67054 0.996152 0
M  V30 10886 C 1050.59 0.767919 3.51817 0
M  V30 10887 C 1050.44 2.26574 3.88567 0
M  V30 10888 C 1051.76 0.241502 4.39437 0
M  V30 10889 H 1048.88 0.182267 0.714106 0
M  V30 10890 H 1051.52 1.10382 1.54648 0
M  V30 10891 H 1049.67 0.251967 3.87682 0
M  V30 10892 H 1051.34 2.84977 3.62748 0
M  V30 10893 H 1049.59 2.73411 3.36792 0
M  V30 10894 H 1050.26 2.40549 4.9683 0
M  V30 10895 H 1052.73 0.683051 4.10455 0
M  V30 10896 H 1051.61 0.459997 5.46969 0
M  V30 10897 H 1051.87 -0.857068 4.33713 0
M  V30 10898 N 1050.93 -1.4397 0.641131 0
M  V30 10899 C 1052.18 -2.01163 0.147026 0
M  V30 10900 C 1052.49 -1.51099 -1.24211 0
M  V30 10901 O 1053.7 -2.00487 -1.83078 0
M  V30 10902 C 1052.15 -3.59275 0.212068 0
M  V30 10903 C 1051.76 -4.18334 1.60314 0
M  V30 10904 C 1053.51 -4.23903 -0.225057 0
M  V30 10905 C 1051.41 -5.68701 1.62276 0
M  V30 10906 H 1050.34 -0.75226 0.051201 0
M  V30 10907 H 1052.99 -1.65075 0.801396 0
M  V30 10908 H 1051.38 -3.92708 -0.509589 0
M  V30 10909 H 1052.55 -3.96422 2.34918 0
M  V30 10910 H 1050.86 -3.66031 1.9852 0
M  V30 10911 H 1053.46 -5.34205 -0.230074 0
M  V30 10912 H 1053.8 -3.96956 -1.25426 0
M  V30 10913 H 1054.34 -3.95309 0.44444 0
M  V30 10914 H 1051.08 -6.00397 2.63066 0
M  V30 10915 H 1050.6 -5.92705 0.919797 0
M  V30 10916 H 1052.28 -6.32521 1.36112 0
M  V30 10917 N 1052.41 -0.382291 -1.52893 0
M  V30 10918 C 1053.65 0.202433 -2.01787 0
M  V30 10919 C 1053.99 1.47044 -1.26853 0
M  V30 10920 O 1053.26 1.91007 -0.366969 0
M  V30 10921 C 1053.54 0.477471 -3.5692 0
M  V30 10922 C 1053.4 -0.805339 -4.42532 0
M  V30 10923 C 1054.72 1.27106 -4.21346 0
M  V30 10924 H 1051.84 0.0720998 -0.733465 0
M  V30 10925 H 1054.48 -0.510478 -1.83014 0
M  V30 10926 H 1052.63 1.08478 -3.73048 0
M  V30 10927 H 1054.3 -1.4424 -4.3817 0
M  V30 10928 H 1052.54 -1.42216 -4.09826 0
M  V30 10929 H 1053.21 -0.567635 -5.49074 0
M  V30 10930 H 1055.69 0.757161 -4.09153 0
M  V30 10931 H 1054.57 1.43225 -5.29885 0
M  V30 10932 H 1054.83 2.28431 -3.78513 0
M  V30 10933 N 1053.89 1.57202 -0.111913 0
M  V30 10934 C 1054.8 2.18475 0.854753 0
M  V30 10935 C 1055.81 1.15888 1.29792 0
M  V30 10936 O 1056.99 1.48329 1.36237 0
M  V30 10937 C 1054.05 2.76645 2.0897 0
M  V30 10938 C 1053.11 3.94244 1.69913 0
M  V30 10939 C 1052.35 4.49631 2.8752 0
M  V30 10940 O 1052.57 4.03926 4.02741 0
M  V30 10941 O 1051.5 5.40417 2.65015 0
M  V30 10942 H 1055.33 3.01519 0.363352 0
M  V30 10943 H 1052.91 1.4897 0.113329 0
M  V30 10944 H 1054.8 3.13755 2.81311 0
M  V30 10945 H 1053.47 1.96637 2.5713 0
M  V30 10946 H 1052.38 3.61915 0.947013 0
M  V30 10947 H 1053.71 4.75666 1.26501 0
M  V30 10948 N 1055.36 -0.161842 1.56767 0
M  V30 10949 C 1056.59 -0.896274 1.87034 0
M  V30 10950 C 1057.01 -1.74617 0.699314 0
M  V30 10951 O 1056.37 -1.77861 -0.351435 0
M  V30 10952 C 1056.42 -1.74105 3.15784 0
M  V30 10953 O 1055.52 -2.84372 2.98674 0
M  V30 10954 H 1054.86 -0.250523 0.614926 0
M  V30 10955 H 1057.39 -0.157127 2.03996 0
M  V30 10956 H 1057.4 -2.13907 3.4743 0
M  V30 10957 H 1056.08 -1.11684 4.00624 0
M  V30 10958 H 1054.66 -2.48084 2.78404 0
M  V30 10959 N 1056.84 -1.516 -0.430713 0
M  V30 10960 C 1058.08 -1.6626 -1.18899 0
M  V30 10961 C 1058.45 -0.373877 -1.88325 0
M  V30 10962 O 1059.65 -0.39632 -2.65862 0
M  V30 10963 C 1057.92 -2.83693 -2.17378 0
M  V30 10964 S 1059.48 -3.18717 -3.01604 0
M  V30 10965 H 1056.29 -0.585681 -0.403112 0
M  V30 10966 H 1058.9 -1.89528 -0.479538 0
M  V30 10967 H 1057.6 -3.75759 -1.65025 0
M  V30 10968 H 1057.13 -2.62634 -2.92894 0
M  V30 10969 H 1059.15 -2.65665 -4.1909 0
M  V30 10970 N 1058.32 0.686584 -1.41858 0
M  V30 10971 C 1059.25 1.81202 -1.40352 0
M  V30 10972 C 1060.26 1.5993 -0.304322 0
M  V30 10973 O 1061.45 1.69267 -0.566643 0
M  V30 10974 C 1058.55 3.18116 -1.16856 0
M  V30 10975 C 1057.73 3.66339 -2.38987 0
M  V30 10976 C 1056.79 4.8195 -2.11212 0
M  V30 10977 O 1055.81 4.93102 -2.84323 0
M  V30 10978 N 1057.01 5.69829 -1.10793 0
M  V30 10979 H 1059.78 1.82983 -2.37355 0
M  V30 10980 H 1057.34 0.869244 -1.36586 0
M  V30 10981 H 1059.33 3.93097 -0.962125 0
M  V30 10982 H 1057.9 3.11306 -0.284186 0
M  V30 10983 H 1057.12 2.82166 -2.75274 0
M  V30 10984 H 1058.41 3.95297 -3.2034 0
M  V30 10985 H 1057.81 5.63459 -0.503012 0
M  V30 10986 H 1056.36 6.44671 -0.961379 0
M  V30 10987 N 1059.8 1.27835 0.921735 0
M  V30 10988 C 1061.21 1.05369 1.19873 0
M  V30 10989 C 1061.41 -0.208997 2.00413 0
M  V30 10990 O 1060.47 -0.912861 2.35421 0
M  V30 10991 C 1061.78 2.29658 1.94108 0
M  V30 10992 C 1063.33 2.34756 2.07023 0
M  V30 10993 C 1063.81 3.5879 2.84664 0
M  V30 10994 N 1065.3 3.59383 2.9223 0
M  V30 10995 C 1066.03 4.52029 3.52785 0
M  V30 10996 N 1065.53 5.54986 4.14683 0
M  V30 10997 N 1067.32 4.39641 3.50246 0
M  V30 10998 H 1059.47 2.08903 0.383819 0
M  V30 10999 H 1061.73 0.919065 0.232429 0
M  V30 11000 H 1061.44 3.21604 1.4235 0
M  V30 11001 H 1061.31 2.35444 2.94696 0
M  V30 11002 H 1063.7 1.43312 2.57965 0
M  V30 11003 H 1063.78 2.32969 1.05636 0
M  V30 11004 H 1063.43 4.50574 2.34404 0
M  V30 11005 H 1063.36 3.57829 3.86349 0
M  V30 11006 H 1065.85 2.84927 2.48244 0
M  V30 11007 H 1066.16 6.21837 4.58845 0
M  V30 11008 H 1064.51 5.58822 4.13211 0
M  V30 11009 H 1067.7 3.58413 3.01094 0
M  V30 11010 H 1067.87 5.12033 3.97148 0
M  V30 11011 N 1061.28 -1.12907 1.09954 0
M  V30 11012 C 1062.21 -2.20585 0.765799 0
M  V30 11013 C 1063.19 -1.68117 -0.258989 0
M  V30 11014 O 1064.37 -1.93792 -0.125853 0
M  V30 11015 C 1061.5 -3.46772 0.191435 0
M  V30 11016 C 1060.46 -4.12363 1.14635 0
M  V30 11017 C 1059.78 -5.3294 0.433426 0
M  V30 11018 C 1061.08 -4.59073 2.49096 0
M  V30 11019 H 1062.78 -2.48759 1.66612 0
M  V30 11020 H 1060.32 -1.19563 0.802534 0
M  V30 11021 H 1062.27 -4.21365 -0.0541535 0
M  V30 11022 H 1061 -3.18011 -0.744101 0
M  V30 11023 H 1059.66 -3.39744 1.37731 0
M  V30 11024 H 1059.31 -5.00444 -0.506422 0
M  V30 11025 H 1059.01 -5.77772 1.07018 0
M  V30 11026 H 1060.53 -6.10284 0.196267 0
M  V30 11027 H 1061.94 -5.25063 2.30177 0
M  V30 11028 H 1060.34 -5.14665 3.0861 0
M  V30 11029 H 1061.41 -3.73313 3.0946 0
M  V30 11030 N 1062.75 -0.88754 -1.30232 0
M  V30 11031 C 1064 -0.506277 -1.95656 0
M  V30 11032 C 1064.32 0.948191 -1.70395 0
M  V30 11033 O 1063.59 1.66701 -1.02895 0
M  V30 11034 H 1062.17 -0.184235 -0.723924 0
M  V30 11035 H 1064.83 -1.13118 -1.58715 0
M  V30 11036 H 1063.93 -0.678673 -3.04632 0
M  V30 11037 N 1064.23 1.43628 -0.648757 0
M  V30 11038 C 1065.2 2.29172 0.0360713 0
M  V30 11039 C 1066.2 1.41974 0.754976 0
M  V30 11040 O 1067.39 1.63654 0.5969 0
M  V30 11041 C 1064.52 3.23942 1.0618 0
M  V30 11042 H 1065.71 2.91214 -0.716544 0
M  V30 11043 H 1063.26 1.50833 -0.409759 0
M  V30 11044 H 1064 2.66786 1.8438 0
M  V30 11045 H 1063.78 3.88223 0.550016 0
M  V30 11046 H 1065.27 3.8816 1.54019 0
M  V30 11047 N 1065.71 0.390394 1.52688 0
M  V30 11048 C 1066.96 -0.192697 2.00777 0
M  V30 11049 C 1067.27 -1.4781 1.28108 0
M  V30 11050 O 1068.48 -2.1413 1.66914 0
M  V30 11051 C 1066.93 -0.393955 3.57737 0
M  V30 11052 C 1066.54 0.878259 4.39307 0
M  V30 11053 C 1068.29 -0.933352 4.14112 0
M  V30 11054 C 1066.19 0.645218 5.8787 0
M  V30 11055 H 1065.12 -0.0757862 0.750182 0
M  V30 11056 H 1067.77 0.512961 1.76184 0
M  V30 11057 H 1066.16 -1.16149 3.78583 0
M  V30 11058 H 1067.33 1.65049 4.30227 0
M  V30 11059 H 1065.65 1.34269 3.94158 0
M  V30 11060 H 1068.24 -1.12343 5.22765 0
M  V30 11061 H 1068.59 -1.90272 3.70273 0
M  V30 11062 H 1069.12 -0.225361 3.97161 0
M  V30 11063 H 1065.86 1.58562 6.36033 0
M  V30 11064 H 1065.38 -0.0880609 5.99735 0
M  V30 11065 H 1067.06 0.280178 6.46393 0
M  V30 11066 N 1067.19 -1.57141 0.120249 0
M  V30 11067 C 1068.43 -1.95527 -0.538245 0
M  V30 11068 C 1068.77 -1.00373 -1.6625 0
M  V30 11069 O 1068.04 -0.0411734 -1.94456 0
M  V30 11070 C 1068.33 -3.43843 -1.06976 0
M  V30 11071 C 1068.18 -4.49771 0.0511596 0
M  V30 11072 C 1069.5 -3.94035 -1.96022 0
M  V30 11073 H 1066.62 -0.710958 -0.194183 0
M  V30 11074 H 1069.26 -1.88986 0.196061 0
M  V30 11075 H 1067.41 -3.49548 -1.69553 0
M  V30 11076 H 1069.08 -4.56163 0.686503 0
M  V30 11077 H 1067.32 -4.27882 0.714127 0
M  V30 11078 H 1067.99 -5.50812 -0.361995 0
M  V30 11079 H 1070.47 -3.9064 -1.43315 0
M  V30 11080 H 1069.35 -4.98329 -2.3013 0
M  V30 11081 H 1069.61 -3.34803 -2.8872 0
M  V30 11082 N 1068.67 0.153526 -1.5685 0
M  V30 11083 C 1069.63 1.17362 -1.96873 0
M  V30 11084 C 1070.63 1.36219 -0.854456 0
M  V30 11085 O 1071.82 1.33322 -1.1212 0
M  V30 11086 C 1068.95 2.53523 -2.27901 0
M  V30 11087 H 1070.14 0.830432 -2.88173 0
M  V30 11088 H 1067.7 0.396633 -1.51184 0
M  V30 11089 H 1068.43 2.92824 -1.39371 0
M  V30 11090 H 1068.22 2.41198 -3.09137 0
M  V30 11091 H 1069.71 3.27006 -2.59725 0
M  V30 11092 N 1070.14 1.51827 0.422667 0
M  V30 11093 C 1071.39 1.65464 1.17258 0
M  V30 11094 C 1071.72 0.376834 1.90509 0
M  V30 11095 O 1071 -0.624219 1.84211 0
M  V30 11096 C 1071.28 2.86776 2.17788 0
M  V30 11097 C 1071.13 4.24571 1.48523 0
M  V30 11098 C 1072.45 3.03603 3.18611 0
M  V30 11099 H 1069.57 0.602169 0.424925 0
M  V30 11100 H 1072.21 1.84349 0.45996 0
M  V30 11101 H 1070.36 2.70806 2.78561 0
M  V30 11102 H 1072.04 4.5224 0.909739 0
M  V30 11103 H 1070.28 4.26595 0.787354 0
M  V30 11104 H 1070.95 5.05475 2.2181 0
M  V30 11105 H 1073.43 3.18381 2.67904 0
M  V30 11106 H 1072.3 3.90022 3.8623 0
M  V30 11107 H 1072.56 2.16318 3.85563 0
M  V30 11108 N 1071.62 -0.679052 1.4222 0
M  V30 11109 C 1072.85 -1.46747 1.45852 0
M  V30 11110 C 1073.27 -1.88675 0.0685937 0
M  V30 11111 O 1072.62 -1.57861 -0.915757 0
M  V30 11112 C 1072.67 -2.71935 2.38188 0
M  V30 11113 O 1072.39 -2.31768 3.71773 0
M  V30 11114 C 1073.9 -3.65536 2.50796 0
M  V30 11115 H 1071.12 -0.451682 0.49621 0
M  V30 11116 H 1073.66 -0.834723 1.86689 0
M  V30 11117 H 1071.81 -3.31409 2.00616 0
M  V30 11118 H 1072.23 -3.12579 4.21182 0
M  V30 11119 H 1073.7 -4.50113 3.19535 0
M  V30 11120 H 1074.18 -4.11148 1.54447 0
M  V30 11121 H 1074.79 -3.11957 2.89072 0
M  V30 11122 N 1073.1 -1.28322 -0.914942 0
M  V30 11123 C 1074.35 -1.15179 -1.66067 0
M  V30 11124 C 1074.67 0.300279 -1.92674 0
M  V30 11125 O 1073.94 1.20821 -1.54205 0
M  V30 11126 H 1072.52 -0.423264 -0.615513 0
M  V30 11127 H 1075.18 -1.61034 -1.09791 0
M  V30 11128 H 1074.28 -1.69048 -2.62353 0
M  V30 11129 N 1074.58 1.12322 -1.10551 0
M  V30 11130 C 1075.86 1.80201 -0.760715 0
M  V30 11131 C 1076.24 1.97228 0.752628 0
M  V30 11132 O 1075.58 1.54958 1.67929 0
M  V30 11133 C 1075.79 3.14491 -1.51316 0
M  V30 11134 C 1077.14 3.89671 -1.68647 0
M  V30 11135 O 1078.17 3.24151 -1.47664 0
M  V30 11136 O 1077.02 5.0722 -2.03445 0
M  V30 11137 H 1074.12 0.780084 -0.274587 0
M  V30 11138 H 1076.66 1.19147 -1.20839 0
M  V30 11139 H 1075.44 2.97396 -2.54306 0
M  V30 11140 H 1075.06 3.83253 -1.05842 0
M  V30 11141 N 1076.06 0.894434 1.2976 0
M  V30 11142 C 1077.3 0.516646 1.95385 0
M  V30 11143 C 1077.63 -0.939141 1.70895 0
M  V30 11144 O 1076.9 -1.66153 1.03778 0
M  V30 11145 H 1075.48 0.188072 0.722937 0
M  V30 11146 H 1078.14 1.13958 1.58113 0
M  V30 11147 H 1077.23 0.694819 3.04267 0
M  V30 11148 N 1077.53 -1.43282 0.656365 0
M  V30 11149 C 1078.78 -2.02075 0.171293 0
M  V30 11150 C 1079.11 -1.51682 -1.21269 0
M  V30 11151 O 1078.39 -0.711243 -1.81029 0
M  V30 11152 C 1078.67 -3.59621 0.185602 0
M  V30 11153 C 1078.52 -4.20239 1.60373 0
M  V30 11154 C 1079.84 -4.37515 -0.476289 0
M  V30 11155 H 1076.96 -0.73424 0.0637185 0
M  V30 11156 H 1079.6 -1.70539 0.837648 0
M  V30 11157 H 1077.75 -3.86619 -0.381804 0
M  V30 11158 H 1079.43 -4.0426 2.22197 0
M  V30 11159 H 1077.67 -3.76769 2.15006 0
M  V30 11160 H 1078.34 -5.29333 1.56557 0
M  V30 11161 H 1080.82 -4.16099 0.00651073 0
M  V30 11162 H 1079.69 -5.47169 -0.435562 0
M  V30 11163 H 1079.95 -4.14003 -1.55093 0
M  V30 11164 N 1079.01 -0.398486 -1.52479 0
M  V30 11165 C 1079.96 0.447001 -2.28264 0
M  V30 11166 C 1080.96 1.05511 -1.32529 0
M  V30 11167 O 1082.16 0.994528 -1.5003 0
M  V30 11168 H 1078.54 0.162919 -0.73414 0
M  V30 11169 H 1080.51 -0.213534 -2.97635 0
M  V30 11170 C 1079.26 1.55724 -3.10879 0
M  V30 11171 H 1078.58 1.09864 -3.84409 0
M  V30 11172 H 1080.02 2.12286 -3.67029 0
M  V30 11173 C 1078.48 2.51853 -2.23768 0
M  V30 11174 O 1079.01 3.55483 -1.87069 0
M  V30 11175 N 1077.21 2.2181 -1.87746 0
M  V30 11176 H 1076.76 1.3757 -2.17789 0
M  V30 11177 H 1076.72 2.86376 -1.29753 0
M  V30 11178 N 1080.49 1.57075 -0.12858 0
M  V30 11179 C 1081.77 1.87075 0.571162 0
M  V30 11180 C 1082.15 1.03141 1.84188 0
M  V30 11181 O 1081.5 0.113001 2.2822 0
M  V30 11182 C 1081.71 3.3838 0.854383 0
M  V30 11183 C 1083.05 4.07194 1.20326 0
M  V30 11184 O 1084.08 3.43454 0.944338 0
M  V30 11185 O 1082.94 5.19725 1.68963 0
M  V30 11186 H 1080.03 0.774764 0.289258 0
M  V30 11187 H 1082.58 1.68908 -0.163806 0
M  V30 11188 H 1081.35 3.91273 -0.0456925 0
M  V30 11189 H 1080.97 3.62012 1.64418 0
M  V30 11190 N 1081.97 -0.145205 1.5693 0
M  V30 11191 C 1083.19 -0.876386 1.87974 0
M  V30 11192 C 1083.62 -1.73866 0.717795 0
M  V30 11193 O 1082.98 -1.78224 -0.332551 0
M  V30 11194 C 1083.03 -1.70746 3.17613 0
M  V30 11195 O 1082.13 -2.81188 3.01674 0
M  V30 11196 H 1081.47 -0.243987 0.617549 0
M  V30 11197 H 1084 -0.135482 2.04151 0
M  V30 11198 H 1084.01 -2.1021 3.49679 0
M  V30 11199 H 1082.69 -1.07429 4.01786 0
M  V30 11200 H 1081.26 -2.45117 2.81019 0
M  V30 11201 N 1083.45 -1.52049 -0.414609 0
M  V30 11202 C 1084.86 -1.58062 -0.993638 0
M  V30 11203 C 1085.21 -0.417795 -1.917 0
M  V30 11204 O 1084.33 0.462558 -2.11399 0
M  V30 11205 C 1084.93 -2.86471 -1.80886 0
M  V30 11206 C 1083.49 -2.94981 -2.33801 0
M  V30 11207 C 1082.64 -2.52949 -1.13631 0
M  V30 11208 H 1085.59 -1.57497 -0.19504 0
M  V30 11209 H 1085.61 -2.71515 -2.66571 0
M  V30 11210 H 1085.12 -3.71085 -1.13657 0
M  V30 11211 H 1083.22 -2.14849 -3.04419 0
M  V30 11212 H 1083.33 -3.99111 -2.65042 0
M  V30 11213 H 1081.7 -2.0667 -1.48861 0
M  V30 11214 H 1082.48 -3.39931 -0.479765 0
M  V30 11215 N 1084.93 0.6715 -1.42579 0
M  V30 11216 C 1085.89 1.76676 -1.46008 0
M  V30 11217 C 1086.89 1.57007 -0.347213 0
M  V30 11218 O 1088.08 1.63238 -0.608185 0
M  V30 11219 C 1085.21 3.15348 -1.29494 0
M  V30 11220 H 1086.4 1.75021 -2.43531 0
M  V30 11221 H 1083.96 0.881444 -1.29075 0
M  V30 11222 H 1084.69 3.22626 -0.32906 0
M  V30 11223 H 1084.48 3.31028 -2.10149 0
M  V30 11224 H 1085.97 3.95251 -1.34784 0
M  V30 11225 N 1086.4 1.28806 0.908124 0
M  V30 11226 C 1087.33 1.15758 2.02787 0
M  V30 11227 C 1088.31 0.053911 1.70015 0
M  V30 11228 O 1089.5 0.231901 1.9281 0
M  V30 11229 C 1086.63 0.824526 3.37371 0
M  V30 11230 C 1085.58 1.88359 3.84324 0
M  V30 11231 C 1084.91 1.40404 5.15937 0
M  V30 11232 C 1086.21 3.29108 4.05568 0
M  V30 11233 H 1087.9 2.09431 2.13961 0
M  V30 11234 H 1085.45 1.00831 1.02806 0
M  V30 11235 H 1087.4 0.71999 4.15204 0
M  V30 11236 H 1086.13 -0.147902 3.26265 0
M  V30 11237 H 1084.79 1.97736 3.087 0
M  V30 11238 H 1084.43 0.420515 5.01239 0
M  V30 11239 H 1084.13 2.11224 5.48323 0
M  V30 11240 H 1085.66 1.31283 5.9632 0
M  V30 11241 H 1087.07 3.2262 4.73909 0
M  V30 11242 H 1085.47 3.97812 4.49294 0
M  V30 11243 H 1086.54 3.72709 3.10187 0
M  V30 11244 N 1087.88 -1.11734 1.11145 0
M  V30 11245 C 1088.83 -2.17683 0.766979 0
M  V30 11246 C 1089.8 -1.64051 -0.260108 0
M  V30 11247 O 1090.98 -1.90302 -0.137723 0
M  V30 11248 C 1088.12 -3.44442 0.212982 0
M  V30 11249 C 1087.24 -4.12094 1.29626 0
M  V30 11250 C 1086.37 -5.26526 0.703127 0
M  V30 11251 C 1085.41 -5.86057 1.76647 0
M  V30 11252 N 1084.55 -6.91889 1.19306 0
M  V30 11253 H 1089.39 -2.46495 1.67465 0
M  V30 11254 H 1086.92 -1.21011 0.836353 0
M  V30 11255 H 1088.88 -4.17009 -0.126162 0
M  V30 11256 H 1087.51 -3.16025 -0.657888 0
M  V30 11257 H 1086.56 -3.37631 1.75241 0
M  V30 11258 H 1087.88 -4.52398 2.10089 0
M  V30 11259 H 1087.03 -6.05888 0.313859 0
M  V30 11260 H 1085.77 -4.87519 -0.132856 0
M  V30 11261 H 1084.77 -5.05375 2.16508 0
M  V30 11262 H 1086 -6.27132 2.60543 0
M  V30 11263 H 1083.95 -6.54906 0.378664 0
M  V30 11264 H 1083.86 -7.30832 1.93443 0
M  V30 11265 H 1085.13 -7.75062 0.830578 0
M  V30 11266 N 1089.36 -0.901303 -1.29284 0
M  V30 11267 C 1090.31 -0.378666 -2.27672 0
M  V30 11268 C 1091.28 0.540102 -1.57074 0
M  V30 11269 O 1092.46 0.464997 -1.85047 0
M  V30 11270 C 1089.6 0.38635 -3.42931 0
M  V30 11271 C 1088.71 -0.563496 -4.28309 0
M  V30 11272 C 1087.85 0.218731 -5.30749 0
M  V30 11273 C 1086.89 -0.725536 -6.07785 0
M  V30 11274 N 1086.03 0.0223854 -7.02096 0
M  V30 11275 H 1090.87 -1.22277 -2.71758 0
M  V30 11276 H 1088.4 -0.614302 -1.33659 0
M  V30 11277 H 1090.36 0.845967 -4.08533 0
M  V30 11278 H 1088.99 1.1949 -2.9987 0
M  V30 11279 H 1088.04 -1.14163 -3.62865 0
M  V30 11280 H 1089.35 -1.28623 -4.81931 0
M  V30 11281 H 1088.51 0.739473 -6.02177 0
M  V30 11282 H 1087.25 0.97459 -4.77863 0
M  V30 11283 H 1086.25 -1.25776 -5.3522 0
M  V30 11284 H 1087.48 -1.48075 -6.6276 0
M  V30 11285 H 1085.42 0.760482 -6.51577 0
M  V30 11286 H 1085.34 -0.640408 -7.53283 0
M  V30 11287 H 1086.61 0.523339 -7.77741 0
M  V30 11288 N 1090.84 1.42931 -0.663954 0
M  V30 11289 C 1091.8 2.29197 0.0117626 0
M  V30 11290 C 1092.8 1.42767 0.739875 0
M  V30 11291 O 1093.99 1.64278 0.579509 0
M  V30 11292 C 1091.12 3.2505 1.02738 0
M  V30 11293 H 1092.32 2.90438 -0.747391 0
M  V30 11294 H 1089.87 1.5039 -0.425733 0
M  V30 11295 H 1090.6 2.68726 1.8154 0
M  V30 11296 H 1090.39 3.88785 0.508809 0
M  V30 11297 H 1091.88 3.89771 1.49893 0
M  V30 11298 N 1092.32 0.406567 1.52266 0
M  V30 11299 C 1093.59 -0.228477 1.94261 0
M  V30 11300 C 1093.97 -1.62848 1.34328 0
M  V30 11301 O 1093.32 -2.22549 0.518082 0
M  V30 11302 C 1093.53 -0.237401 3.48192 0
M  V30 11303 C 1094.88 -0.457997 4.22123 0
M  V30 11304 O 1095.9 -0.316868 3.54788 0
M  V30 11305 O 1094.76 -0.735946 5.41522 0
M  V30 11306 H 1091.86 -0.146492 0.813922 0
M  V30 11307 H 1094.4 0.462325 1.63281 0
M  V30 11308 H 1093.17 0.742556 3.8419 0
M  V30 11309 H 1092.8 -0.972408 3.85526 0
M  V30 11310 N 1093.79 -1.57004 0.136909 0
M  V30 11311 C 1095.04 -1.94972 -0.51662 0
M  V30 11312 C 1095.36 -1.02367 -1.66674 0
M  V30 11313 O 1096.56 -1.29873 -2.38423 0
M  V30 11314 C 1095.02 -3.4657 -0.970435 0
M  V30 11315 C 1094.63 -4.47741 0.152204 0
M  V30 11316 C 1096.37 -3.93423 -1.59432 0
M  V30 11317 C 1094.28 -5.90537 -0.319315 0
M  V30 11318 H 1093.21 -0.727873 -0.196766 0
M  V30 11319 H 1095.86 -1.82181 0.219637 0
M  V30 11320 H 1094.24 -3.54657 -1.76165 0
M  V30 11321 H 1095.41 -4.5134 0.928925 0
M  V30 11322 H 1093.73 -4.10746 0.683867 0
M  V30 11323 H 1096.33 -4.97539 -1.95856 0
M  V30 11324 H 1096.67 -3.34404 -2.47951 0
M  V30 11325 H 1097.2 -3.8821 -0.868193 0
M  V30 11326 H 1093.94 -6.53352 0.530248 0
M  V30 11327 H 1093.46 -5.90321 -1.06213 0
M  V30 11328 H 1095.14 -6.42346 -0.774662 0
M  V30 11329 N 1095.27 0.136881 -1.57004 0
M  V30 11330 C 1096.52 0.8461 -1.83536 0
M  V30 11331 C 1096.84 1.81246 -0.71937 0
M  V30 11332 O 1096.11 1.94191 0.258161 0
M  V30 11333 H 1094.69 0.315446 -0.677128 0
M  V30 11334 H 1097.35 0.128469 -1.94476 0
M  V30 11335 H 1096.45 1.40221 -2.78827 0
M  V30 11336 N 1096.75 1.52266 0.40654 0
M  V30 11337 C 1098 1.66699 1.15496 0
M  V30 11338 C 1098.33 0.397019 1.90098 0
M  V30 11339 O 1097.6 -0.604646 1.84863 0
M  V30 11340 C 1097.89 2.8907 2.14734 0
M  V30 11341 C 1097.74 4.26123 1.44012 0
M  V30 11342 C 1099.06 3.06966 3.15373 0
M  V30 11343 H 1096.18 0.606642 0.418515 0
M  V30 11344 H 1098.82 1.84826 0.440381 0
M  V30 11345 H 1096.97 2.73745 2.75673 0
M  V30 11346 H 1098.64 4.5318 0.861722 0
M  V30 11347 H 1096.89 4.27406 0.742064 0
M  V30 11348 H 1097.56 5.07799 2.16436 0
M  V30 11349 H 1100.03 3.21205 2.64512 0
M  V30 11350 H 1098.91 3.94097 3.82072 0
M  V30 11351 H 1099.17 2.20395 3.83247 0
M  V30 11352 N 1098.23 -0.663929 1.42933 0
M  V30 11353 C 1099.19 -1.75899 1.46943 0
M  V30 11354 C 1100.19 -1.5682 0.355535 0
M  V30 11355 O 1101.38 -1.62914 0.616833 0
M  V30 11356 C 1098.51 -3.14657 1.31164 0
M  V30 11357 H 1099.71 -1.73727 2.44456 0
M  V30 11358 H 1097.26 -0.874587 1.2954 0
M  V30 11359 H 1097.99 -3.22447 0.346165 0
M  V30 11360 H 1097.78 -3.29909 2.11902 0
M  V30 11361 H 1099.27 -3.9453 1.36878 0
M  V30 11362 N 1099.71 -1.29285 -0.901281 0
M  V30 11363 C 1100.64 -1.08603 -2.007 0
M  V30 11364 C 1101.62 0.00162233 -1.626 0
M  V30 11365 O 1102.8 -0.148764 -1.87912 0
M  V30 11366 C 1099.93 -0.652972 -3.32346 0
M  V30 11367 C 1098.97 -1.73911 -3.89432 0
M  V30 11368 S 1099.81 -3.33797 -4.18736 0
M  V30 11369 C 1100.96 -2.92355 -5.53425 0
M  V30 11370 H 1101.2 -2.02216 -2.17936 0
M  V30 11371 H 1098.73 -1.13414 -1.04769 0
M  V30 11372 H 1100.69 -0.409825 -4.08449 0
M  V30 11373 H 1099.35 0.263527 -3.12993 0
M  V30 11374 H 1098.54 -1.388 -4.84511 0
M  V30 11375 H 1098.14 -1.93569 -3.20011 0
M  V30 11376 H 1100.44 -2.39301 -6.33831 0
M  V30 11377 H 1101.38 -3.86278 -5.9346 0
M  V30 11378 H 1101.79 -2.30697 -5.15208 0
M  V30 11379 N 1101.18 1.11143 -1.11736 0
M  V30 11380 C 1102.43 1.82586 -0.866412 0
M  V30 11381 C 1102.75 1.85227 0.609593 0
M  V30 11382 O 1102.02 1.32505 1.44288 0
M  V30 11383 H 1100.6 0.676149 -0.31754 0
M  V30 11384 H 1103.27 1.34516 -1.41037 0
M  V30 11385 H 1102.36 2.8635 -1.24136 0
M  V30 11386 N 1102.66 0.908147 1.28804 0
M  V30 11387 C 1103.91 0.534332 1.94494 0
M  V30 11388 C 1104.22 -0.92552 1.72318 0
M  V30 11389 O 1105.43 -1.40724 2.32183 0
M  V30 11390 C 1103.89 0.904748 3.48342 0
M  V30 11391 C 1103.49 2.38394 3.79305 0
M  V30 11392 C 1105.24 0.601249 4.2022 0
M  V30 11393 C 1103.15 2.69478 5.26437 0
M  V30 11394 H 1102.08 0.196107 0.728051 0
M  V30 11395 H 1104.73 1.1063 1.46401 0
M  V30 11396 H 1103.11 0.261624 3.95135 0
M  V30 11397 H 1104.28 3.07333 3.43341 0
M  V30 11398 H 1102.6 2.65733 3.20586 0
M  V30 11399 H 1105.19 0.810225 5.28526 0
M  V30 11400 H 1105.54 -0.460669 4.13743 0
M  V30 11401 H 1106.07 1.20259 3.79187 0
M  V30 11402 H 1102.81 3.74501 5.37986 0
M  V30 11403 H 1102.33 2.05171 5.63618 0
M  V30 11404 H 1104.01 2.56187 5.94119 0
M  V30 11405 N 1104.14 -1.42577 0.671525 0
M  V30 11406 C 1105.1 -2.292 0.000392482 0
M  V30 11407 C 1106.1 -1.43158 -0.732294 0
M  V30 11408 O 1107.29 -1.64583 -0.570789 0
M  V30 11409 C 1104.43 -3.25591 -1.01013 0
M  V30 11410 H 1105.62 -2.90037 0.762783 0
M  V30 11411 H 1103.17 -1.50162 0.433703 0
M  V30 11412 H 1103.91 -2.69685 -1.80112 0
M  V30 11413 H 1103.69 -3.89049 -0.488183 0
M  V30 11414 H 1105.18 -3.90561 -1.47824 0
M  V30 11415 N 1105.62 -0.414636 -1.52048 0
M  V30 11416 C 1106.87 0.159034 -2.01473 0
M  V30 11417 C 1107.19 1.45176 -1.30188 0
M  V30 11418 O 1106.46 1.91134 -0.429469 0
M  V30 11419 H 1105.04 0.0617604 -0.744443 0
M  V30 11420 H 1107.7 -0.552141 -1.86916 0
M  V30 11421 H 1106.8 0.351217 -3.10118 0
M  V30 11422 N 1107.1 1.56929 -0.145233 0
M  V30 11423 C 1108.32 2.00864 0.516564 0
M  V30 11424 C 1108.75 1.02466 1.57741 0
M  V30 11425 O 1108.1 0.000145439 1.813 0
M  V30 11426 C 1108.15 3.43552 1.09563 0
M  V30 11427 O 1107.26 3.4815 2.21055 0
M  V30 11428 H 1106.6 0.651835 0.126521 0
M  V30 11429 H 1109.13 2.0317 -0.241445 0
M  V30 11430 H 1109.14 3.82316 1.42473 0
M  V30 11431 H 1107.81 4.14677 0.318749 0
M  V30 11432 H 1106.39 3.21228 1.89387 0
M  V30 11433 N 1108.58 -0.128553 1.57075 0
M  V30 11434 C 1109.85 -0.867766 1.75297 0
M  V30 11435 C 1110.23 -1.98508 0.718176 0
M  V30 11436 O 1109.58 -2.2702 -0.259616 0
M  V30 11437 C 1109.79 -1.39326 3.19983 0
M  V30 11438 C 1111.14 -1.84939 3.82208 0
M  V30 11439 O 1112.16 -1.49027 3.23527 0
M  V30 11440 O 1111.02 -2.51227 4.85332 0
M  V30 11441 H 1108.12 -0.411393 0.717415 0
M  V30 11442 H 1110.66 -0.113038 1.69323 0
M  V30 11443 H 1109.43 -0.591172 3.86809 0
M  V30 11444 H 1109.06 -2.21097 3.30457 0
M  V30 11445 N 1110.05 -1.5248 -0.398459 0
M  V30 11446 C 1111.02 -1.75949 -1.46883 0
M  V30 11447 C 1112.02 -0.629431 -1.47969 0
M  V30 11448 O 1113.21 -0.897407 -1.49306 0
M  V30 11449 C 1110.34 -1.85162 -2.8623 0
M  V30 11450 H 1111.53 -2.71513 -1.2736 0
M  V30 11451 H 1109.08 -1.43058 -0.629619 0
M  V30 11452 H 1109.82 -0.915505 -3.11109 0
M  V30 11453 H 1109.6 -2.67326 -2.86844 0
M  V30 11454 H 1111.09 -2.05025 -3.63805 0
M  V30 11455 N 1111.53 0.65634 -1.43283 0
M  V30 11456 C 1112.49 1.75117 -1.47874 0
M  V30 11457 C 1113.49 1.56629 -0.363846 0
M  V30 11458 O 1114.68 1.62584 -0.625464 0
M  V30 11459 C 1111.82 3.13957 -1.32831 0
M  V30 11460 H 1113.01 1.72429 -2.45374 0
M  V30 11461 H 1110.56 0.867704 -1.30002 0
M  V30 11462 H 1111.3 3.22259 -0.36326 0
M  V30 11463 H 1111.08 3.28781 -2.13649 0
M  V30 11464 H 1112.57 3.93799 -1.38969 0
M  V30 11465 N 1113.01 1.29761 0.894412 0
M  V30 11466 C 1113.96 1.15341 1.99912 0
M  V30 11467 C 1114.93 0.0453488 1.66038 0
M  V30 11468 O 1116.11 0.213829 1.89598 0
M  V30 11469 C 1113.25 0.841432 3.34685 0
M  V30 11470 C 1112.36 2.03046 3.81309 0
M  V30 11471 C 1111.5 1.65739 5.04682 0
M  V30 11472 C 1110.54 2.81191 5.43689 0
M  V30 11473 N 1109.68 2.44244 6.58247 0
M  V30 11474 H 1114.52 2.09854 2.11578 0
M  V30 11475 H 1112.05 1.04421 1.03608 0
M  V30 11476 H 1114.01 0.641211 4.12243 0
M  V30 11477 H 1112.64 -0.066797 3.22731 0
M  V30 11478 H 1111.69 2.34222 2.9974 0
M  V30 11479 H 1113 2.89538 4.06164 0
M  V30 11480 H 1112.16 1.42036 5.8984 0
M  V30 11481 H 1110.9 0.764019 4.81678 0
M  V30 11482 H 1109.9 3.0557 4.57064 0
M  V30 11483 H 1111.13 3.712 5.68672 0
M  V30 11484 H 1109.07 1.57402 6.36837 0
M  V30 11485 H 1108.99 3.24269 6.82924 0
M  V30 11486 H 1110.26 2.23875 7.46659 0
M  V30 11487 N 1114.49 -1.10549 1.12324 0
M  V30 11488 C 1115.44 -2.18944 0.785248 0
M  V30 11489 C 1116.43 -1.67867 -0.227389 0
M  V30 11490 O 1117.64 -1.79796 -0.0857162 0
M  V30 11491 H 1114.01 -0.713976 0.236098 0
M  V30 11492 H 1115.98 -2.44692 1.70788 0
M  V30 11493 C 1114.73 -3.46765 0.25485 0
M  V30 11494 H 1114.05 -3.86428 1.02534 0
M  V30 11495 H 1115.49 -4.23962 0.0566526 0
M  V30 11496 C 1113.95 -3.21185 -1.01695 0
M  V30 11497 O 1114.48 -3.42745 -2.09497 0
M  V30 11498 N 1112.69 -2.7486 -0.943423 0
M  V30 11499 H 1112.24 -2.57515 -0.0660366 0
M  V30 11500 H 1112.19 -2.58122 -1.795 0
M  V30 11501 N 1115.97 -0.914965 -1.28321 0
M  V30 11502 C 1116.93 -0.409024 -2.25521 0
M  V30 11503 C 1117.93 0.465327 -1.5392 0
M  V30 11504 O 1119.12 0.26821 -1.72123 0
M  V30 11505 C 1116.25 0.413452 -3.38383 0
M  V30 11506 H 1117.44 -1.26767 -2.71791 0
M  V30 11507 H 1115 -0.694477 -1.40024 0
M  V30 11508 H 1115.73 1.29145 -2.97476 0
M  V30 11509 H 1115.52 -0.213268 -3.9152 0
M  V30 11510 H 1117.01 0.758232 -4.10659 0
M  V30 11511 N 1117.44 1.42219 -0.679077 0
M  V30 11512 C 1118.41 2.29197 -0.0125475 0
M  V30 11513 C 1119.41 1.43544 0.724691 0
M  V30 11514 O 1120.6 1.64884 0.562052 0
M  V30 11515 C 1117.73 3.26122 0.992846 0
M  V30 11516 H 1118.92 2.89629 -0.778154 0
M  V30 11517 H 1116.47 1.4993 -0.44166 0
M  V30 11518 H 1117.21 2.70637 1.78679 0
M  V30 11519 H 1116.99 3.89302 0.467544 0
M  V30 11520 H 1118.48 3.91339 1.45751 0
M  V30 11521 N 1118.92 0.422693 1.51826 0
M  V30 11522 C 1120.2 -0.20786 1.94492 0
M  V30 11523 C 1120.58 -1.61414 1.36047 0
M  V30 11524 O 1119.93 -2.21987 0.541657 0
M  V30 11525 C 1120.14 -0.200457 3.48424 0
M  V30 11526 C 1121.48 -0.413199 4.22585 0
M  V30 11527 O 1122.51 -0.27922 3.55104 0
M  V30 11528 O 1121.37 -0.678469 5.42272 0
M  V30 11529 H 1118.46 -0.137851 0.81543 0
M  V30 11530 H 1121.01 0.479617 1.62781 0
M  V30 11531 H 1119.78 0.783263 3.83381 0
M  V30 11532 H 1119.4 -0.931464 3.86535 0
M  V30 11533 N 1120.4 -1.5685 0.153553 0
M  V30 11534 C 1121.33 -2.12888 -0.821829 0
M  V30 11535 C 1122.31 -1.05418 -1.23798 0
M  V30 11536 O 1123.49 -1.33288 -1.33292 0
M  V30 11537 C 1120.62 -2.65394 -2.10438 0
M  V30 11538 C 1119.67 -3.85071 -1.83364 0
M  V30 11539 S 1120.5 -5.2572 -1.01877 0
M  V30 11540 C 1121.66 -5.81619 -2.31236 0
M  V30 11541 H 1121.89 -2.95288 -0.345314 0
M  V30 11542 H 1119.42 -1.5428 -0.0608377 0
M  V30 11543 H 1121.38 -2.96294 -2.84113 0
M  V30 11544 H 1120.04 -1.83112 -2.55204 0
M  V30 11545 H 1119.23 -4.20076 -2.78482 0
M  V30 11546 H 1118.84 -3.54965 -1.17794 0
M  V30 11547 H 1121.13 -5.9345 -3.26838 0
M  V30 11548 H 1122.07 -6.79054 -2.00727 0
M  V30 11549 H 1122.48 -5.09909 -2.42184 0
M  V30 11550 N 1121.88 0.120221 -1.57141 0
M  V30 11551 C 1123.13 0.826791 -1.83976 0
M  V30 11552 C 1123.44 1.81102 -0.739014 0
M  V30 11553 O 1124.65 2.56368 -0.893736 0
M  V30 11554 C 1123.1 1.52108 -3.26176 0
M  V30 11555 C 1122.71 0.577902 -4.44257 0
M  V30 11556 C 1124.45 2.21286 -3.62261 0
M  V30 11557 C 1122.36 1.27535 -5.77485 0
M  V30 11558 H 1121.29 0.312508 -0.686189 0
M  V30 11559 H 1123.94 0.0795343 -1.83328 0
M  V30 11560 H 1122.32 2.31492 -3.2129 0
M  V30 11561 H 1123.5 -0.182629 -4.60438 0
M  V30 11562 H 1121.81 -0.00684348 -4.16399 0
M  V30 11563 H 1124.41 2.74154 -4.59068 0
M  V30 11564 H 1124.75 2.99029 -2.89634 0
M  V30 11565 H 1125.29 1.48791 -3.68925 0
M  V30 11566 H 1122.02 0.539237 -6.53278 0
M  V30 11567 H 1121.54 2.00792 -5.65192 0
M  V30 11568 H 1123.22 1.80888 -6.21199 0
M  V30 11569 N 1123.36 1.52689 0.390367 0
M  V30 11570 C 1124.29 1.80338 1.48325 0
M  V30 11571 C 1125.27 0.655338 1.56969 0
M  V30 11572 O 1126.45 0.902792 1.7194 0
M  V30 11573 C 1123.58 1.97101 2.85952 0
M  V30 11574 C 1122.54 3.12783 2.92148 0
M  V30 11575 C 1121.86 3.14798 4.32211 0
M  V30 11576 C 1123.16 4.5188 2.61919 0
M  V30 11577 H 1124.86 2.71857 1.25437 0
M  V30 11578 H 1122.4 1.30813 0.601995 0
M  V30 11579 H 1124.36 2.15027 3.62411 0
M  V30 11580 H 1123.08 1.02271 3.10174 0
M  V30 11581 H 1121.74 2.94638 2.18137 0
M  V30 11582 H 1121.39 2.17653 4.53471 0
M  V30 11583 H 1121.09 3.92507 4.37278 0
M  V30 11584 H 1122.61 3.34877 5.10578 0
M  V30 11585 H 1124.02 4.70134 3.28096 0
M  V30 11586 H 1122.42 5.31647 2.78337 0
M  V30 11587 H 1123.49 4.58689 1.57266 0
M  V30 11588 N 1124.83 -0.648732 1.43629 0
M  V30 11589 C 1125.76 -1.77298 1.51947 0
M  V30 11590 C 1126.75 -1.65942 0.373785 0
M  V30 11591 O 1127.93 -1.8497 0.591596 0
M  V30 11592 C 1125.06 -3.15749 1.44638 0
M  V30 11593 C 1124.01 -3.41872 2.57502 0
M  V30 11594 C 1123.34 -4.8017 2.35246 0
M  V30 11595 C 1124.64 -3.36173 3.99731 0
M  V30 11596 H 1126.33 -1.70594 2.46045 0
M  V30 11597 H 1123.88 -0.819306 1.1842 0
M  V30 11598 H 1125.83 -3.94156 1.4906 0
M  V30 11599 H 1124.56 -3.23194 0.470466 0
M  V30 11600 H 1123.22 -2.65838 2.5244 0
M  V30 11601 H 1122.86 -4.84297 1.35887 0
M  V30 11602 H 1122.56 -4.9861 3.10906 0
M  V30 11603 H 1124.09 -5.6083 2.41459 0
M  V30 11604 H 1125.5 -4.0451 4.06257 0
M  V30 11605 H 1123.9 -3.66148 4.75453 0
M  V30 11606 H 1124.97 -2.34277 4.24549 0
M  V30 11607 N 1126.31 -1.30234 -0.887518 0
M  V30 11608 C 1127.59 -1.09572 -1.62029 0
M  V30 11609 C 1127.97 0.355877 -2.08079 0
M  V30 11610 O 1127.32 1.34692 -1.84582 0
M  V30 11611 C 1127.53 -2.0943 -2.79177 0
M  V30 11612 C 1128.88 -2.4101 -3.4957 0
M  V30 11613 O 1129.9 -2.0772 -2.89363 0
M  V30 11614 O 1128.76 -2.97943 -4.5814 0
M  V30 11615 H 1125.85 -0.420648 -0.712028 0
M  V30 11616 H 1128.4 -1.41651 -0.934517 0
M  V30 11617 H 1127.17 -3.07149 -2.42436 0
M  V30 11618 H 1126.79 -1.78154 -3.55453 0
M  V30 11619 N 1127.79 1.09952 -1.12909 0
M  V30 11620 C 1129.07 1.78547 -0.798767 0
M  V30 11621 C 1129.45 1.9878 0.710624 0
M  V30 11622 O 1128.8 1.58485 1.64604 0
M  V30 11623 C 1129.01 3.1121 -1.57953 0
M  V30 11624 C 1130.35 3.86006 -1.76874 0
M  V30 11625 O 1131.38 3.20946 -1.54506 0
M  V30 11626 O 1130.24 5.02791 -2.14158 0
M  V30 11627 H 1127.33 0.774084 -0.291072 0
M  V30 11628 H 1129.88 1.16557 -1.2334 0
M  V30 11629 H 1128.65 2.91935 -2.60557 0
M  V30 11630 H 1128.27 3.80922 -1.13948 0
M  V30 11631 N 1129.27 0.921757 1.27833 0
M  V30 11632 C 1130.22 0.406628 2.29018 0
M  V30 11633 C 1131.21 -0.505914 1.61669 0
M  V30 11634 O 1132.42 -0.386273 1.75807 0
M  V30 11635 H 1128.79 0.112914 0.743475 0
M  V30 11636 H 1130.76 1.27295 2.69886 0
M  V30 11637 C 1129.51 -0.330783 3.46123 0
M  V30 11638 H 1128.83 0.362207 3.98156 0
M  V30 11639 H 1130.27 -0.655738 4.18899 0
M  V30 11640 C 1128.73 -1.54161 2.9956 0
M  V30 11641 O 1129.26 -2.64052 3.0272 0
M  V30 11642 N 1127.47 -1.39137 2.55126 0
M  V30 11643 H 1127.02 -0.497319 2.52754 0
M  V30 11644 H 1126.97 -2.20278 2.24333 0
M  V30 11645 N 1130.75 -1.41857 0.686609 0
M  V30 11646 C 1131.99 -2.01368 0.213801 0
M  V30 11647 C 1132.32 -1.5434 -1.18361 0
M  V30 11648 O 1131.58 -0.741447 -1.81111 0
M  V30 11649 C 1131.88 -3.56783 0.209951 0
M  V30 11650 C 1131.54 -4.23288 1.55365 0
M  V30 11651 C 1130.2 -4.41169 1.92154 0
M  V30 11652 C 1132.56 -4.6066 2.43807 0
M  V30 11653 C 1129.88 -4.93697 3.16986 0
M  V30 11654 C 1132.24 -5.14573 3.67963 0
M  V30 11655 C 1130.9 -5.30667 4.04906 0
M  V30 11656 H 1130.17 -0.736858 0.0782352 0
M  V30 11657 H 1132.82 -1.69879 0.88393 0
M  V30 11658 H 1131.12 -3.88009 -0.543712 0
M  V30 11659 H 1132.82 -4.00625 -0.173267 0
M  V30 11660 H 1129.41 -4.09738 1.2575 0
M  V30 11661 H 1133.59 -4.46507 2.16668 0
M  V30 11662 H 1128.85 -5.04342 3.45615 0
M  V30 11663 H 1133.02 -5.42473 4.36687 0
M  V30 11664 H 1130.65 -5.71133 5.01709 0
M  V30 11665 N 1132.22 -0.430739 -1.51599 0
M  V30 11666 C 1133.19 0.372319 -2.26156 0
M  V30 11667 C 1134.19 0.955338 -1.29344 0
M  V30 11668 O 1135.38 0.830823 -1.53111 0
M  V30 11669 C 1132.51 1.52613 -3.04831 0
M  V30 11670 H 1133.7 -0.280996 -2.98581 0
M  V30 11671 H 1131.26 -0.183749 -1.55216 0
M  V30 11672 H 1131.99 2.21569 -2.36807 0
M  V30 11673 H 1131.78 1.11433 -3.75932 0
M  V30 11674 H 1133.27 2.09366 -3.61325 0
M  V30 11675 N 1133.7 1.56767 -0.161869 0
M  V30 11676 C 1134.93 2.01401 0.49523 0
M  V30 11677 C 1135.35 1.04133 1.56646 0
M  V30 11678 O 1134.71 0.0193747 1.8129 0
M  V30 11679 C 1134.76 3.44695 1.05913 0
M  V30 11680 O 1133.86 3.50475 2.1735 0
M  V30 11681 H 1133.2 0.65314 0.1196 0
M  V30 11682 H 1135.73 2.02903 -0.26298 0
M  V30 11683 H 1135.74 3.83805 1.3841 0
M  V30 11684 H 1134.42 4.14991 0.274749 0
M  V30 11685 H 1133 3.23218 1.85969 0
M  V30 11686 N 1135.18 -0.111886 1.57202 0
M  V30 11687 C 1136.43 -0.817022 1.84412 0
M  V30 11688 C 1136.74 -1.80708 0.748608 0
M  V30 11689 O 1137.95 -2.55891 0.907319 0
M  V30 11690 C 1136.4 -1.50376 3.26979 0
M  V30 11691 C 1136.01 -0.554334 4.44557 0
M  V30 11692 C 1137.76 -2.19361 3.63429 0
M  V30 11693 C 1135.66 -1.24471 5.78153 0
M  V30 11694 H 1134.59 -0.308864 0.687836 0
M  V30 11695 H 1137.24 -0.0698109 1.83367 0
M  V30 11696 H 1135.63 -2.29785 3.22514 0
M  V30 11697 H 1136.8 0.207045 4.60335 0
M  V30 11698 H 1135.12 0.0289261 4.1639 0
M  V30 11699 H 1137.71 -2.71716 4.60515 0
M  V30 11700 H 1138.06 -2.97488 2.91215 0
M  V30 11701 H 1138.59 -1.46833 3.69709 0
M  V30 11702 H 1135.33 -0.504584 6.53555 0
M  V30 11703 H 1134.85 -1.97792 5.66249 0
M  V30 11704 H 1136.53 -1.77591 6.2215 0
M  V30 11705 N 1136.66 -1.52894 -0.382264 0
M  V30 11706 C 1137.9 -1.68515 -1.12829 0
M  V30 11707 C 1138.24 -0.427211 -1.89443 0
M  V30 11708 O 1137.51 0.57516 -1.85801 0
M  V30 11709 C 1137.8 -2.92449 -2.10108 0
M  V30 11710 C 1137.65 -4.2836 -1.37214 0
M  V30 11711 C 1138.97 -3.11944 -3.1045 0
M  V30 11712 H 1136.09 -0.613223 -0.408811 0
M  V30 11713 H 1138.73 -1.85503 -0.410921 0
M  V30 11714 H 1136.88 -2.78097 -2.71283 0
M  V30 11715 H 1138.55 -4.54493 -0.789516 0
M  V30 11716 H 1136.79 -4.28532 -0.673973 0
M  V30 11717 H 1137.46 -5.11178 -2.0833 0
M  V30 11718 H 1139.94 -3.25372 -2.59369 0
M  V30 11719 H 1138.82 -4.00125 -3.75754 0
M  V30 11720 H 1139.08 -2.26465 -3.79692 0
M  V30 11721 N 1138.14 0.641106 -1.43971 0
M  V30 11722 C 1139.37 1.42829 -1.49692 0
M  V30 11723 C 1139.78 1.88427 -0.118594 0
M  V30 11724 O 1139.14 1.60234 0.873581 0
M  V30 11725 C 1139.19 2.65524 -2.45314 0
M  V30 11726 O 1138.91 2.2183 -3.77787 0
M  V30 11727 C 1140.41 3.58758 -2.60399 0
M  V30 11728 H 1137.63 0.438367 -0.508011 0
M  V30 11729 H 1140.17 0.784933 -1.88836 0
M  V30 11730 H 1138.33 3.25973 -2.09332 0
M  V30 11731 H 1138.74 3.01303 -4.29321 0
M  V30 11732 H 1140.22 4.41483 -3.31357 0
M  V30 11733 H 1140.69 4.06909 -1.65294 0
M  V30 11734 H 1141.3 3.04184 -2.97241 0
M  V30 11735 N 1139.62 1.30703 0.880598 0
M  V30 11736 C 1140.86 1.19541 1.62955 0
M  V30 11737 C 1141.18 -0.249089 1.93403 0
M  V30 11738 O 1140.45 -1.1669 1.57354 0
M  V30 11739 H 1139.03 0.439434 0.604075 0
M  V30 11740 H 1141.7 1.63888 1.05483 0
M  V30 11741 H 1140.79 1.75945 2.57779 0
M  V30 11742 N 1141.09 -1.09351 1.1349 0
M  V30 11743 C 1142.34 -1.81812 0.898452 0
M  V30 11744 C 1142.67 -1.85525 -0.573959 0
M  V30 11745 O 1141.95 -1.32403 -1.42477 0
M  V30 11746 C 1142.23 -3.27921 1.48794 0
M  V30 11747 C 1142.08 -3.32476 3.02952 0
M  V30 11748 C 1143.4 -4.24625 1.15678 0
M  V30 11749 H 1140.52 -0.660074 0.327829 0
M  V30 11750 H 1143.16 -1.28091 1.40331 0
M  V30 11751 H 1141.31 -3.738 1.05858 0
M  V30 11752 H 1142.99 -2.94994 3.54649 0
M  V30 11753 H 1141.23 -2.72037 3.37903 0
M  V30 11754 H 1141.9 -4.35409 3.39298 0
M  V30 11755 H 1144.38 -3.87036 1.52781 0
M  V30 11756 H 1143.25 -5.25194 1.59571 0
M  V30 11757 H 1143.51 -4.42044 0.0705933 0
M  V30 11758 N 1142.57 -0.928524 -1.27343 0
M  V30 11759 C 1143.48 -0.433901 -2.30553 0
M  V30 11760 C 1144.5 0.485832 -1.6708 0
M  V30 11761 O 1145.67 0.36844 -1.98001 0
M  V30 11762 C 1142.74 0.304617 -3.45359 0
M  V30 11763 C 1141.8 -0.650131 -4.24349 0
M  V30 11764 C 1141.03 0.0532372 -5.33673 0
M  V30 11765 O 1141.26 1.27246 -5.56026 0
M  V30 11766 O 1140.19 -0.619009 -5.98709 0
M  V30 11767 H 1144.02 -1.2909 -2.74899 0
M  V30 11768 H 1141.6 -0.693903 -1.32308 0
M  V30 11769 H 1143.48 0.721137 -4.15184 0
M  V30 11770 H 1142.16 1.13721 -3.03066 0
M  V30 11771 H 1141.06 -1.11635 -3.57055 0
M  V30 11772 H 1142.4 -1.44996 -4.70358 0
M  V30 11773 N 1144.05 1.41491 -0.694123 0
M  V30 11774 C 1144.98 2.29197 0.0112742 0
M  V30 11775 C 1145.99 1.44708 0.745877 0
M  V30 11776 O 1147.18 1.68227 0.596821 0
M  V30 11777 C 1144.28 3.22547 1.04004 0
M  V30 11778 C 1143.46 4.35787 0.375347 0
M  V30 11779 C 1142.52 5.09722 1.30652 0
M  V30 11780 O 1141.54 5.63558 0.799459 0
M  V30 11781 N 1142.74 5.1705 2.63893 0
M  V30 11782 H 1145.51 2.90377 -0.741705 0
M  V30 11783 H 1143.07 1.52628 -0.540039 0
M  V30 11784 H 1145.06 3.68878 1.66468 0
M  V30 11785 H 1143.63 2.62685 1.69456 0
M  V30 11786 H 1142.85 3.91857 -0.429145 0
M  V30 11787 H 1144.14 5.08726 -0.0869041 0
M  V30 11788 H 1143.54 4.74756 3.07609 0
M  V30 11789 H 1142.09 5.66962 3.21555 0
M  V30 11790 N 1145.53 0.438773 1.51369 0
M  V30 11791 C 1146.78 -0.126962 2.01701 0
M  V30 11792 C 1147.1 -1.43086 1.32481 0
M  V30 11793 O 1146.37 -1.90427 0.459823 0
M  V30 11794 H 1144.95 -0.0499092 0.745331 0
M  V30 11795 H 1147.61 0.581808 1.86013 0
M  V30 11796 H 1146.7 -0.301836 3.10637 0
M  V30 11797 N 1147.01 -1.56678 0.170181 0
M  V30 11798 C 1148.42 -1.58512 -0.185999 0
M  V30 11799 C 1148.62 -1.18548 -1.62937 0
M  V30 11800 O 1147.68 -0.896554 -2.36047 0
M  V30 11801 C 1148.99 -3.00554 0.0937842 0
M  V30 11802 C 1150.54 -3.12984 0.0319057 0
M  V30 11803 C 1151.01 -4.57115 0.284664 0
M  V30 11804 N 1152.5 -4.62617 0.2324 0
M  V30 11805 C 1153.24 -5.71988 0.40216 0
M  V30 11806 N 1152.74 -6.89921 0.630915 0
M  V30 11807 N 1154.53 -5.61082 0.338144 0
M  V30 11808 H 1146.68 -1.80944 1.11235 0
M  V30 11809 H 1148.94 -0.838586 0.442128 0
M  V30 11810 H 1148.65 -3.34265 1.09362 0
M  V30 11811 H 1148.52 -3.72151 -0.615118 0
M  V30 11812 H 1150.91 -2.791 -0.958502 0
M  V30 11813 H 1150.99 -2.43825 0.773501 0
M  V30 11814 H 1150.63 -4.91707 1.27227 0
M  V30 11815 H 1150.56 -5.2443 -0.477529 0
M  V30 11816 H 1153.06 -3.7785 0.0611933 0
M  V30 11817 H 1153.37 -7.69153 0.749931 0
M  V30 11818 H 1151.71 -6.91787 0.667516 0
M  V30 11819 H 1154.9 -4.67826 0.16003 0
M  V30 11820 H 1155.08 -6.46265 0.473872 0
M  V30 11821 N 1148.48 0.103547 -1.57259 0
M  V30 11822 C 1149.41 1.12714 -2.04494 0
M  V30 11823 C 1150.39 1.42278 -0.932255 0
M  V30 11824 O 1151.58 1.52453 -1.20298 0
M  V30 11825 C 1148.71 2.44927 -2.46228 0
M  V30 11826 C 1147.66 2.2979 -3.61082 0
M  V30 11827 C 1146.99 3.67105 -3.88765 0
M  V30 11828 C 1148.29 1.7455 -4.9227 0
M  V30 11829 H 1149.98 0.734198 -2.90258 0
M  V30 11830 H 1147.53 0.351725 -1.39638 0
M  V30 11831 H 1149.48 3.16798 -2.77879 0
M  V30 11832 H 1148.21 2.8614 -1.57453 0
M  V30 11833 H 1146.87 1.60366 -3.29664 0
M  V30 11834 H 1146.51 4.05831 -2.97171 0
M  V30 11835 H 1146.21 3.57825 -4.66084 0
M  V30 11836 H 1147.74 4.40456 -4.22884 0
M  V30 11837 H 1149.15 2.36253 -5.22358 0
M  V30 11838 H 1147.55 1.76051 -5.73695 0
M  V30 11839 H 1148.62 0.704242 -4.79759 0
M  V30 11840 N 1149.96 1.53094 0.37415 0
M  V30 11841 C 1151.21 1.68082 1.11495 0
M  V30 11842 C 1151.52 0.434685 1.90709 0
M  V30 11843 O 1152.73 0.464956 2.67489 0
M  V30 11844 C 1151.19 2.97101 2.03124 0
M  V30 11845 C 1150.79 4.28947 1.29262 0
M  V30 11846 C 1152.54 3.21456 2.77248 0
M  V30 11847 C 1150.44 5.4906 2.19743 0
M  V30 11848 H 1149.37 0.626238 0.419931 0
M  V30 11849 H 1152.03 1.79594 0.376588 0
M  V30 11850 H 1150.41 2.79371 2.80656 0
M  V30 11851 H 1151.58 4.57279 0.568528 0
M  V30 11852 H 1149.9 4.10968 0.670362 0
M  V30 11853 H 1152.49 4.08377 3.45155 0
M  V30 11854 H 1152.84 2.37153 3.42146 0
M  V30 11855 H 1153.37 3.3982 2.06803 0
M  V30 11856 H 1150.11 6.35815 1.59437 0
M  V30 11857 H 1149.63 5.25019 2.90027 0
M  V30 11858 H 1151.31 5.83517 2.79495 0
M  V30 11859 N 1151.44 -0.633461 1.44309 0
M  V30 11860 C 1152.69 -1.39306 1.46969 0
M  V30 11861 C 1153.01 -1.94235 0.101403 0
M  V30 11862 O 1152.27 -1.73959 -0.896475 0
M  V30 11863 C 1152.57 -2.57783 2.47554 0
M  V30 11864 C 1152.23 -2.21156 3.92939 0
M  V30 11865 C 1150.9 -2.1088 4.32531 0
M  V30 11866 C 1153.25 -1.9218 4.84475 0
M  V30 11867 C 1150.58 -1.69812 5.61588 0
M  V30 11868 C 1152.93 -1.52605 6.13917 0
M  V30 11869 C 1151.59 -1.40868 6.52466 0
M  V30 11870 H 1150.86 -0.509758 0.537799 0
M  V30 11871 H 1153.51 -0.718552 1.77508 0
M  V30 11872 H 1151.81 -3.30456 2.1049 0
M  V30 11873 H 1153.51 -3.16009 2.46859 0
M  V30 11874 H 1150.1 -2.30072 3.61614 0
M  V30 11875 H 1154.29 -1.9903 4.54644 0
M  V30 11876 H 1149.54 -1.59327 5.90275 0
M  V30 11877 H 1153.72 -1.29221 6.84306 0
M  V30 11878 H 1151.34 -1.08818 7.52371 0
M  V30 11879 N 1152.92 -1.31168 -0.873655 0
M  V30 11880 C 1154.2 -1.11285 -1.60857 0
M  V30 11881 C 1154.58 0.333788 -2.08444 0
M  V30 11882 O 1153.92 1.32726 -1.86 0
M  V30 11883 C 1154.13 -2.12379 -2.7694 0
M  V30 11884 C 1155.48 -2.44704 -3.46994 0
M  V30 11885 O 1156.51 -2.10778 -2.87143 0
M  V30 11886 O 1155.36 -3.02786 -4.54954 0
M  V30 11887 H 1152.46 -0.428177 -0.707526 0
M  V30 11888 H 1155 -1.42634 -0.91944 0
M  V30 11889 H 1153.78 -3.09703 -2.39164 0
M  V30 11890 H 1153.4 -1.81914 -3.53544 0
M  V30 11891 N 1154.4 1.08748 -1.14068 0
M  V30 11892 C 1155.34 2.17667 -0.819981 0
M  V30 11893 C 1156.34 1.68207 0.200654 0
M  V30 11894 O 1157.54 1.79909 0.0571014 0
M  V30 11895 H 1153.92 0.710129 -0.247427 0
M  V30 11896 H 1155.89 2.41944 -1.74659 0
M  V30 11897 C 1154.64 3.46315 -0.309985 0
M  V30 11898 H 1153.96 3.84748 -1.08669 0
M  V30 11899 H 1155.4 4.23818 -0.124094 0
M  V30 11900 C 1153.86 3.22762 0.965724 0
M  V30 11901 O 1154.39 3.46034 2.04018 0
M  V30 11902 N 1152.6 2.76326 0.899576 0
M  V30 11903 H 1152.14 2.57588 0.0250598 0
M  V30 11904 H 1152.1 2.60945 1.75371 0
M  V30 11905 N 1155.87 0.935264 1.26849 0
M  V30 11906 C 1156.8 0.457776 2.28969 0
M  V30 11907 C 1157.79 -0.48587 1.63013 0
M  V30 11908 O 1158.97 -0.388998 1.90264 0
M  V30 11909 C 1156.1 -0.283332 3.46142 0
M  V30 11910 C 1155.05 0.573196 4.24144 0
M  V30 11911 C 1154.38 -0.297525 5.33872 0
M  V30 11912 C 1155.68 1.84153 4.88759 0
M  V30 11913 H 1157.37 1.31125 2.69159 0
M  V30 11914 H 1154.92 0.631956 1.29392 0
M  V30 11915 H 1156.87 -0.628366 4.16689 0
M  V30 11916 H 1155.6 -1.1709 3.04889 0
M  V30 11917 H 1154.26 0.901043 3.55354 0
M  V30 11918 H 1153.9 -1.18427 4.8886 0
M  V30 11919 H 1153.6 0.272126 5.8697 0
M  V30 11920 H 1155.13 -0.637961 6.07258 0
M  V30 11921 H 1156.54 1.5641 5.51551 0
M  V30 11922 H 1154.94 2.35528 5.51948 0
M  V30 11923 H 1156.01 2.5565 4.12033 0
M  V30 11924 N 1157.35 -1.41121 0.701616 0
M  V30 11925 C 1158.3 -2.30765 0.040121 0
M  V30 11926 C 1159.27 -1.47436 -0.764975 0
M  V30 11927 O 1160.45 -1.76209 -0.731775 0
M  V30 11928 C 1157.59 -3.33535 -0.885903 0
M  V30 11929 C 1156.71 -4.3194 -0.0717765 0
M  V30 11930 C 1155.84 -5.21779 -0.995996 0
M  V30 11931 C 1154.88 -6.11849 -0.175133 0
M  V30 11932 N 1154.02 -6.94151 -1.05348 0
M  V30 11933 H 1158.86 -2.86772 0.810312 0
M  V30 11934 H 1156.4 -1.41233 0.411301 0
M  V30 11935 H 1158.35 -3.91675 -1.4369 0
M  V30 11936 H 1156.98 -2.79065 -1.62243 0
M  V30 11937 H 1156.04 -3.75698 0.596221 0
M  V30 11938 H 1157.35 -4.95597 0.56435 0
M  V30 11939 H 1156.5 -5.84782 -1.61601 0
M  V30 11940 H 1155.24 -4.58363 -1.66597 0
M  V30 11941 H 1154.25 -5.4789 0.457916 0
M  V30 11942 H 1155.47 -6.77322 0.491133 0
M  V30 11943 H 1153.42 -6.33338 -1.70936 0
M  V30 11944 H 1153.33 -7.54518 -0.473065 0
M  V30 11945 H 1154.6 -7.61617 -1.66012 0
M  V30 11946 N 1158.83 -0.446794 -1.51134 0
M  V30 11947 C 1159.78 0.359865 -2.27977 0
M  V30 11948 C 1160.75 1.0086 -1.31972 0
M  V30 11949 O 1161.93 1.02569 -1.60886 0
M  V30 11950 C 1159.07 1.44978 -3.1317 0
M  V30 11951 C 1158.19 0.818243 -4.2418 0
M  V30 11952 C 1157.32 1.884 -4.96668 0
M  V30 11953 C 1156.36 1.2314 -5.99586 0
M  V30 11954 N 1155.5 2.23894 -6.65444 0
M  V30 11955 H 1160.34 -0.301775 -2.96468 0
M  V30 11956 H 1157.87 -0.160666 -1.4622 0
M  V30 11957 H 1159.83 2.09308 -3.60896 0
M  V30 11958 H 1158.46 2.08092 -2.46775 0
M  V30 11959 H 1157.51 0.0629889 -3.80348 0
M  V30 11960 H 1158.83 0.301885 -4.97886 0
M  V30 11961 H 1157.98 2.6037 -5.4799 0
M  V30 11962 H 1156.72 2.43411 -4.22614 0
M  V30 11963 H 1155.72 0.497215 -5.47547 0
M  V30 11964 H 1156.95 0.688505 -6.75601 0
M  V30 11965 H 1154.89 2.77967 -5.94197 0
M  V30 11966 H 1154.81 1.77176 -7.34945 0
M  V30 11967 H 1156.08 2.95318 -7.21393 0
M  V30 11968 N 1160.31 1.56586 -0.178487 0
M  V30 11969 C 1161.53 2.01915 0.473841 0
M  V30 11970 C 1161.96 1.05789 1.55533 0
M  V30 11971 O 1161.32 0.0386018 1.81259 0
M  V30 11972 C 1161.36 3.45799 1.02251 0
M  V30 11973 O 1160.47 3.52761 2.1362 0
M  V30 11974 H 1159.81 0.654372 0.112666 0
M  V30 11975 H 1162.34 2.02613 -0.284486 0
M  V30 11976 H 1162.35 3.85252 1.34332 0
M  V30 11977 H 1161.02 4.1526 0.230719 0
M  V30 11978 H 1159.6 3.25172 1.8253 0
M  V30 11979 N 1161.79 -0.095206 1.57312 0
M  V30 11980 C 1163.04 -0.797417 1.85268 0
M  V30 11981 C 1163.35 -1.79903 0.767733 0
M  V30 11982 O 1164.55 -2.54914 0.934409 0
M  V30 11983 C 1163.01 -1.469 3.28555 0
M  V30 11984 C 1162.62 -0.507152 4.4512 0
M  V30 11985 C 1164.36 -2.15494 3.65735 0
M  V30 11986 C 1162.27 -1.18331 5.79441 0
M  V30 11987 H 1161.2 -0.301552 0.691074 0
M  V30 11988 H 1163.85 -0.0503584 1.83431 0
M  V30 11989 H 1162.23 -2.26351 3.24933 0
M  V30 11990 H 1163.41 0.255858 4.60089 0
M  V30 11991 H 1161.72 0.0730882 4.16336 0
M  V30 11992 H 1164.32 -2.66816 4.63371 0
M  V30 11993 H 1164.66 -2.94383 2.94354 0
M  V30 11994 H 1165.19 -1.42903 3.71246 0
M  V30 11995 H 1161.93 -0.435238 6.54053 0
M  V30 11996 H 1161.45 -1.91775 5.68315 0
M  V30 11997 H 1163.13 -1.70983 6.23998 0
M  V30 11998 N 1163.26 -1.53291 -0.366026 0
M  V30 11999 C 1164.23 -1.79025 -1.43117 0
M  V30 12000 C 1165.23 -0.660676 -1.46601 0
M  V30 12001 O 1166.42 -0.928875 -1.47369 0
M  V30 12002 C 1163.55 -1.91192 -2.82238 0
M  V30 12003 H 1164.74 -2.74154 -1.21572 0
M  V30 12004 H 1162.3 -1.44361 -0.599132 0
M  V30 12005 H 1163.03 -0.98129 -3.09097 0
M  V30 12006 H 1162.82 -2.7335 -2.81109 0
M  V30 12007 H 1164.31 -2.12696 -3.59375 0
M  V30 12008 N 1164.74 0.6258 -1.44643 0
M  V30 12009 C 1165.97 1.41028 -1.50979 0
M  V30 12010 C 1166.38 1.88717 -0.135092 0
M  V30 12011 O 1165.72 1.61778 0.870268 0
M  V30 12012 C 1165.79 2.66094 -2.41732 0
M  V30 12013 C 1165.45 2.40166 -3.88805 0
M  V30 12014 C 1166.45 2.01661 -4.79196 0
M  V30 12015 C 1164.13 2.53641 -4.33557 0
M  V30 12016 C 1166.13 1.76966 -6.12341 0
M  V30 12017 C 1163.81 2.2856 -5.66748 0
M  V30 12018 C 1164.81 1.90282 -6.55959 0
M  V30 12019 O 1164.5 1.65484 -7.86683 0
M  V30 12020 H 1164.23 0.438757 -0.514265 0
M  V30 12021 H 1166.78 0.772034 -1.90339 0
M  V30 12022 H 1165.01 3.32575 -1.97309 0
M  V30 12023 H 1166.7 3.28107 -2.38957 0
M  V30 12024 H 1167.47 1.90802 -4.45892 0
M  V30 12025 H 1163.35 2.82404 -3.64375 0
M  V30 12026 H 1166.89 1.47014 -6.81933 0
M  V30 12027 H 1162.79 2.3903 -5.99612 0
M  V30 12028 H 1163.56 1.79686 -7.98533 0
M  V30 12029 N 1166.22 1.31629 0.866686 0
M  V30 12030 C 1167.45 1.24474 1.65269 0
M  V30 12031 C 1167.86 -0.18939 1.87848 0
M  V30 12032 O 1167.22 -1.12251 1.43895 0
M  V30 12033 C 1167.27 1.98872 3.01881 0
M  V30 12034 O 1166.99 3.36687 2.8031 0
M  V30 12035 C 1168.49 1.98595 3.96327 0
M  V30 12036 H 1165.71 0.429966 0.515141 0
M  V30 12037 H 1168.26 1.73559 1.08156 0
M  V30 12038 H 1166.41 1.53539 3.55675 0
M  V30 12039 H 1166.83 3.74612 3.67105 0
M  V30 12040 H 1168.3 2.55156 4.89489 0
M  V30 12041 H 1168.78 0.969257 4.28371 0
M  V30 12042 H 1169.38 2.43821 3.4847 0
M  V30 12043 N 1167.7 -1.08142 1.14644 0
M  V30 12044 C 1168.63 -2.17139 0.858667 0
M  V30 12045 C 1169.61 -1.69064 -0.187452 0
M  V30 12046 O 1170.8 -1.94151 -0.0435458 0
M  V30 12047 C 1167.93 -3.45648 0.33834 0
M  V30 12048 C 1166.88 -4.07129 1.32021 0
M  V30 12049 C 1166.21 -5.30623 0.659075 0
M  V30 12050 C 1167.51 -4.48095 2.68343 0
M  V30 12051 H 1169.2 -2.41468 1.77012 0
M  V30 12052 H 1166.75 -1.16052 0.852523 0
M  V30 12053 H 1168.7 -4.21216 0.124611 0
M  V30 12054 H 1167.42 -3.2088 -0.608553 0
M  V30 12055 H 1166.08 -3.33596 1.52016 0
M  V30 12056 H 1165.73 -5.02142 -0.293711 0
M  V30 12057 H 1165.43 -5.72714 1.31427 0
M  V30 12058 H 1166.95 -6.08903 0.454933 0
M  V30 12059 H 1168.37 -5.14828 2.5224 0
M  V30 12060 H 1166.76 -5.01113 3.30161 0
M  V30 12061 H 1167.83 -3.59852 3.25015 0
M  V30 12062 N 1169.18 -0.941978 -1.26351 0
M  V30 12063 C 1170.41 -0.606748 -1.97803 0
M  V30 12064 C 1170.82 0.818441 -1.70138 0
M  V30 12065 O 1170.18 1.54583 -0.970076 0
M  V30 12066 C 1170.23 -0.840431 -3.51595 0
M  V30 12067 O 1169.95 -2.20957 -3.78299 0
M  V30 12068 C 1171.45 -0.515855 -4.40288 0
M  V30 12069 H 1168.67 -0.228591 -0.630862 0
M  V30 12070 H 1171.21 -1.2629 -1.60845 0
M  V30 12071 H 1169.37 -0.230875 -3.86711 0
M  V30 12072 H 1169.78 -2.2702 -4.72824 0
M  V30 12073 H 1171.26 -0.72998 -5.47152 0
M  V30 12074 H 1171.73 0.549178 -4.35753 0
M  V30 12075 H 1172.34 -1.10417 -4.10717 0
M  V30 12076 N 1170.66 1.40747 -0.709091 0
M  V30 12077 C 1171.6 2.30741 -0.0523584 0
M  V30 12078 C 1172.57 1.4784 0.757145 0
M  V30 12079 O 1173.76 1.76595 0.72242 0
M  V30 12080 C 1170.9 3.34 0.868203 0
M  V30 12081 C 1170.01 4.31972 0.0488686 0
M  V30 12082 C 1169.15 5.223 0.968311 0
M  V30 12083 C 1168.18 6.11934 0.142682 0
M  V30 12084 N 1167.32 6.947 1.01665 0
M  V30 12085 H 1172.16 2.86338 -0.825509 0
M  V30 12086 H 1169.7 1.41013 -0.418785 0
M  V30 12087 H 1171.66 3.92431 1.41611 0
M  V30 12088 H 1170.29 2.79921 1.6076 0
M  V30 12089 H 1169.34 3.75377 -0.616137 0
M  V30 12090 H 1170.65 4.95291 -0.590625 0
M  V30 12091 H 1169.8 5.85631 1.58498 0
M  V30 12092 H 1168.54 4.5924 1.64164 0
M  V30 12093 H 1167.55 5.47639 -0.486965 0
M  V30 12094 H 1168.77 6.77052 -0.527046 0
M  V30 12095 H 1166.72 6.34236 1.67575 0
M  V30 12096 H 1166.64 7.54759 0.433045 0
M  V30 12097 H 1167.9 7.62487 1.6197 0
M  V30 12098 N 1172.13 0.454803 1.50895 0
M  V30 12099 C 1173.08 -0.361974 2.29766 0
M  V30 12100 C 1174.08 -1.00519 1.36353 0
M  V30 12101 O 1175.28 -0.938159 1.53618 0
M  V30 12102 H 1171.66 -0.135559 0.739681 0
M  V30 12103 H 1173.63 0.323853 2.96637 0
M  V30 12104 C 1172.38 -1.44078 3.16444 0
M  V30 12105 H 1171.7 -0.955212 3.88221 0
M  V30 12106 H 1173.14 -1.98518 3.74655 0
M  V30 12107 C 1171.6 -2.43374 2.32961 0
M  V30 12108 O 1172.13 -3.48295 2.00133 0
M  V30 12109 N 1170.33 -2.14689 1.95849 0
M  V30 12110 H 1169.88 -1.29392 2.22745 0
M  V30 12111 H 1169.84 -2.81363 1.40292 0
M  V30 12112 N 1173.61 -1.56489 0.186789 0
M  V30 12113 C 1174.86 -1.96517 -0.45433 0
M  V30 12114 C 1175.17 -1.07618 -1.63333 0
M  V30 12115 O 1176.38 -1.37392 -2.3417 0
M  V30 12116 C 1174.84 -3.49482 -0.859685 0
M  V30 12117 C 1174.44 -4.47031 0.294572 0
M  V30 12118 C 1176.19 -3.98296 -1.46835 0
M  V30 12119 C 1174.09 -5.91254 -0.131279 0
M  V30 12120 H 1173.02 -0.733765 -0.17351 0
M  V30 12121 H 1175.68 -1.8139 0.277485 0
M  V30 12122 H 1174.06 -3.60082 -1.64793 0
M  V30 12123 H 1175.23 -4.48156 1.07205 0
M  V30 12124 H 1173.55 -4.08362 0.814197 0
M  V30 12125 H 1176.14 -5.03518 -1.79928 0
M  V30 12126 H 1176.49 -3.42123 -2.37186 0
M  V30 12127 H 1177.02 -3.90776 -0.744247 0
M  V30 12128 H 1173.76 -6.51334 0.737839 0
M  V30 12129 H 1173.28 -5.93401 -0.873786 0
M  V30 12130 H 1174.96 -6.44485 -0.569913 0
M  V30 12131 N 1175.09 0.086862 -1.5736 0
M  V30 12132 C 1176.5 0.640442 -1.75372 0
M  V30 12133 C 1176.85 1.78693 -0.81014 0
M  V30 12134 O 1175.98 2.16398 0.00940712 0
M  V30 12135 C 1176.57 1.16856 -3.1801 0
M  V30 12136 C 1175.13 1.66813 -3.37417 0
M  V30 12137 C 1174.28 0.58116 -2.71142 0
M  V30 12138 H 1177.23 -0.139249 -1.58088 0
M  V30 12139 H 1177.25 2.03772 -3.21337 0
M  V30 12140 H 1176.76 0.333909 -3.86661 0
M  V30 12141 H 1174.86 2.52652 -2.73858 0
M  V30 12142 H 1174.98 1.75545 -4.45781 0
M  V30 12143 H 1173.34 1.0226 -2.3327 0
M  V30 12144 H 1174.12 -0.243047 -3.42439 0
M  V30 12145 N 1176.57 1.53483 0.357892 0
M  V30 12146 C 1177.48 1.83434 1.4625 0
M  V30 12147 C 1178.49 0.723313 1.58254 0
M  V30 12148 O 1179.67 1.01416 1.74002 0
M  V30 12149 C 1176.73 2.0249 2.81423 0
M  V30 12150 C 1175.8 3.26378 2.78883 0
M  V30 12151 C 1175.03 3.44516 4.07608 0
M  V30 12152 O 1175.25 2.66787 5.04163 0
M  V30 12153 O 1174.19 4.37898 4.12952 0
M  V30 12154 H 1178.01 2.77294 1.23861 0
M  V30 12155 H 1175.6 1.38958 0.548722 0
M  V30 12156 H 1177.48 2.16552 3.61501 0
M  V30 12157 H 1176.15 1.11819 3.03773 0
M  V30 12158 H 1175.06 3.17733 1.97475 0
M  V30 12159 H 1176.39 4.16996 2.61486 0
M  V30 12160 N 1178.05 -0.61812 1.44973 0
M  V30 12161 C 1178.98 -1.74035 1.55673 0
M  V30 12162 C 1179.96 -1.65112 0.4089 0
M  V30 12163 O 1181.14 -1.83673 0.630698 0
M  V30 12164 C 1178.27 -3.1261 1.51303 0
M  V30 12165 C 1177.23 -3.36334 2.64696 0
M  V30 12166 C 1176.55 -4.75072 2.45378 0
M  V30 12167 C 1177.85 -3.27618 4.06772 0
M  V30 12168 H 1179.55 -1.65336 2.49608 0
M  V30 12169 H 1177.09 -0.794003 1.20132 0
M  V30 12170 H 1179.04 -3.90906 1.57388 0
M  V30 12171 H 1177.77 -3.22123 0.538914 0
M  V30 12172 H 1176.43 -2.60423 2.58022 0
M  V30 12173 H 1176.08 -4.81306 1.46129 0
M  V30 12174 H 1175.78 -4.91903 3.21412 0
M  V30 12175 H 1177.3 -5.55582 2.53301 0
M  V30 12176 H 1178.71 -3.95802 4.14746 0
M  V30 12177 H 1177.11 -3.55981 4.83113 0
M  V30 12178 H 1178.18 -2.25219 4.29423 0
M  V30 12179 N 1179.52 -1.32087 -0.859693 0
M  V30 12180 C 1180.75 -1.25348 -1.64607 0
M  V30 12181 C 1181.17 0.179425 -1.87945 0
M  V30 12182 O 1180.52 1.11487 -1.44489 0
M  V30 12183 C 1180.57 -2.0047 -3.00822 0
M  V30 12184 O 1180.3 -3.38169 -2.7852 0
M  V30 12185 C 1181.8 -2.00694 -3.95268 0
M  V30 12186 H 1179.02 -0.432692 -0.512854 0
M  V30 12187 H 1181.56 -1.7413 -1.07234 0
M  V30 12188 H 1179.72 -1.55423 -3.54855 0
M  V30 12189 H 1180.13 -3.76553 -3.65113 0
M  V30 12190 H 1181.6 -2.57748 -4.88129 0
M  V30 12191 H 1182.08 -0.99196 -4.27851 0
M  V30 12192 H 1182.69 -2.45666 -3.47172 0
M  V30 12193 N 1181 1.07532 -1.15215 0
M  V30 12194 C 1182.41 1.61567 -0.935568 0
M  V30 12195 C 1182.76 1.89085 0.523557 0
M  V30 12196 O 1181.89 1.65495 1.39429 0
M  V30 12197 C 1182.48 2.93531 -1.69189 0
M  V30 12198 C 1181.04 3.44316 -1.52063 0
M  V30 12199 C 1180.19 2.18404 -1.70866 0
M  V30 12200 H 1183.14 0.906431 -1.30267 0
M  V30 12201 H 1183.16 3.62377 -1.16031 0
M  V30 12202 H 1182.67 2.73471 -2.75381 0
M  V30 12203 H 1180.77 3.69462 -0.482567 0
M  V30 12204 H 1180.89 4.20478 -2.29642 0
M  V30 12205 H 1179.25 2.28012 -1.13502 0
M  V30 12206 H 1180.03 2.00841 -2.7842 0
M  V30 12207 N 1182.48 0.948665 1.2585 0
M  V30 12208 C 1183.71 0.616334 1.97193 0
M  V30 12209 C 1184.12 -0.814538 1.70769 0
M  V30 12210 O 1183.46 -1.55569 0.976926 0
M  V30 12211 C 1183.52 0.787814 3.50762 0
M  V30 12212 C 1183.19 2.19472 4.0085 0
M  V30 12213 C 1184.18 3.17087 4.12009 0
M  V30 12214 C 1181.87 2.51731 4.34669 0
M  V30 12215 C 1183.86 4.45058 4.56292 0
M  V30 12216 C 1181.55 3.79932 4.78639 0
M  V30 12217 C 1182.55 4.76408 4.89412 0
M  V30 12218 O 1182.24 6.02325 5.32409 0
M  V30 12219 H 1181.97 0.230487 0.635493 0
M  V30 12220 H 1184.52 1.27379 1.61133 0
M  V30 12221 H 1182.75 0.0732154 3.86631 0
M  V30 12222 H 1184.44 0.457427 4.03314 0
M  V30 12223 H 1185.21 2.9349 3.8612 0
M  V30 12224 H 1181.09 1.77369 4.25513 0
M  V30 12225 H 1184.63 5.20363 4.64616 0
M  V30 12226 H 1180.53 4.03338 5.03973 0
M  V30 12227 H 1181.3 6.05615 5.50611 0
M  V30 12228 N 1183.96 -1.40369 0.716545 0
M  V30 12229 C 1184.89 -2.33365 0.0793533 0
M  V30 12230 C 1185.87 -1.52943 -0.744482 0
M  V30 12231 O 1187.05 -1.81406 -0.693212 0
M  V30 12232 C 1184.18 -3.36928 -0.842429 0
M  V30 12233 C 1183.14 -4.2782 -0.124142 0
M  V30 12234 C 1182.46 -5.21928 -1.1617 0
M  V30 12235 C 1183.76 -5.12199 1.02224 0
M  V30 12236 H 1185.46 -2.86899 0.856115 0
M  V30 12237 H 1183 -1.37946 0.413138 0
M  V30 12238 H 1184.96 -4.00925 -1.29759 0
M  V30 12239 H 1183.68 -2.81791 -1.6511 0
M  V30 12240 H 1182.34 -3.65277 0.311201 0
M  V30 12241 H 1181.99 -4.63096 -1.96345 0
M  V30 12242 H 1181.69 -5.83582 -0.685978 0
M  V30 12243 H 1183.21 -5.88802 -1.61694 0
M  V30 12244 H 1184.63 -5.69644 0.646399 0
M  V30 12245 H 1183.02 -5.82901 1.4264 0
M  V30 12246 H 1184.09 -4.4812 1.85246 0
M  V30 12247 N 1185.44 -0.462799 -1.50652 0
M  V30 12248 C 1186.69 0.0966838 -2.01468 0
M  V30 12249 C 1187 1.41529 -1.35014 0
M  V30 12250 O 1188.2 2.05923 -1.76941 0
M  V30 12251 C 1186.66 0.222826 -3.5921 0
M  V30 12252 C 1186.27 -1.08686 -4.34616 0
M  V30 12253 C 1188.01 0.734711 -4.18094 0
M  V30 12254 C 1185.92 -0.924964 -5.84122 0
M  V30 12255 H 1184.85 0.0399078 -0.752943 0
M  V30 12256 H 1187.5 -0.596437 -1.73536 0
M  V30 12257 H 1185.88 0.979539 -3.83694 0
M  V30 12258 H 1187.06 -1.85388 -4.21862 0
M  V30 12259 H 1185.37 -1.52922 -3.87303 0
M  V30 12260 H 1187.97 0.872734 -5.2753 0
M  V30 12261 H 1188.31 1.72389 -3.7893 0
M  V30 12262 H 1188.84 0.0356139 -3.97784 0
M  V30 12263 H 1185.58 -1.88727 -6.27744 0
M  V30 12264 H 1185.1 -0.198181 -5.99473 0
M  V30 12265 H 1186.78 -0.588262 -6.4432 0
M  V30 12266 N 1186.91 1.56388 -0.195085 0
M  V30 12267 C 1188.14 2.0167 0.448637 0
M  V30 12268 C 1188.55 1.07439 1.55736 0
M  V30 12269 O 1187.9 0.071441 1.83561 0
M  V30 12270 C 1187.96 3.43348 1.06547 0
M  V30 12271 C 1187.62 4.569 0.0954901 0
M  V30 12272 C 1188.62 5.15232 -0.695116 0
M  V30 12273 C 1186.3 5.02298 -0.0155889 0
M  V30 12274 C 1188.3 6.1741 -1.58377 0
M  V30 12275 C 1185.98 6.0432 -0.907799 0
M  V30 12276 C 1186.98 6.6175 -1.69045 0
M  V30 12277 O 1186.67 7.6179 -2.56771 0
M  V30 12278 H 1186.4 0.665805 0.116962 0
M  V30 12279 H 1188.96 2.03182 -0.301062 0
M  V30 12280 H 1187.19 3.38823 1.86376 0
M  V30 12281 H 1188.88 3.72438 1.61385 0
M  V30 12282 H 1189.64 4.81026 -0.619604 0
M  V30 12283 H 1185.52 4.57293 0.583424 0
M  V30 12284 H 1189.06 6.62164 -2.1951 0
M  V30 12285 H 1184.96 6.37949 -0.984427 0
M  V30 12286 H 1185.73 7.79209 -2.50551 0
M  V30 12287 N 1188.39 -0.0785156 1.57404 0
M  V30 12288 C 1189.64 -0.777722 1.86103 0
M  V30 12289 C 1189.95 -1.79079 0.786771 0
M  V30 12290 O 1191.16 -2.53908 0.961393 0
M  V30 12291 C 1189.62 -1.43407 3.30095 0
M  V30 12292 C 1189.22 -0.459912 4.45633 0
M  V30 12293 C 1190.97 -2.11603 3.68 0
M  V30 12294 C 1188.88 -1.12179 5.80663 0
M  V30 12295 H 1187.81 -0.294205 0.694233 0
M  V30 12296 H 1190.46 -0.0309003 1.83474 0
M  V30 12297 H 1188.84 -2.22892 3.27315 0
M  V30 12298 H 1190.01 0.304642 4.59792 0
M  V30 12299 H 1188.33 0.117242 4.16235 0
M  V30 12300 H 1190.92 -2.61887 4.66175 0
M  V30 12301 H 1191.27 -2.91244 2.9746 0
M  V30 12302 H 1191.8 -1.38958 3.72741 0
M  V30 12303 H 1188.54 -0.365842 6.54478 0
M  V30 12304 H 1188.06 -1.85737 5.70317 0
M  V30 12305 H 1189.74 -1.64355 6.25777 0
M  V30 12306 N 1189.87 -1.5367 -0.349747 0
M  V30 12307 C 1191.1 -1.74547 -1.11089 0
M  V30 12308 C 1191.51 -0.481741 -1.82551 0
M  V30 12309 O 1190.87 0.546272 -1.74132 0
M  V30 12310 C 1190.92 -2.92148 -2.12913 0
M  V30 12311 O 1190.64 -4.13633 -1.44358 0
M  V30 12312 C 1192.14 -3.25027 -3.01451 0
M  V30 12313 H 1189.36 -0.583376 -0.331532 0
M  V30 12314 H 1191.91 -2.00473 -0.403841 0
M  V30 12315 H 1190.06 -2.68572 -2.79192 0
M  V30 12316 H 1190.48 -4.79601 -2.12329 0
M  V30 12317 H 1191.95 -4.10679 -3.68845 0
M  V30 12318 H 1192.43 -2.41064 -3.67131 0
M  V30 12319 H 1193.03 -3.50586 -2.40768 0
M  V30 12320 N 1191.35 0.610423 -1.45298 0
M  V30 12321 C 1192.59 1.37154 -1.49388 0
M  V30 12322 C 1192.93 1.93737 -0.134025 0
M  V30 12323 O 1192.2 1.74888 0.851138 0
M  V30 12324 C 1192.49 2.52155 -2.5708 0
M  V30 12325 C 1192.34 2.00786 -4.02498 0
M  V30 12326 C 1193.66 3.54294 -2.61082 0
M  V30 12327 H 1190.78 0.497346 -0.54389 0
M  V30 12328 H 1193.42 0.688358 -1.77092 0
M  V30 12329 H 1191.57 3.10434 -2.33587 0
M  V30 12330 H 1193.24 1.47178 -4.37191 0
M  V30 12331 H 1191.48 1.31809 -4.1329 0
M  V30 12332 H 1192.15 2.83674 -4.73533 0
M  V30 12333 H 1194.63 3.05851 -2.82125 0
M  V30 12334 H 1193.51 4.32254 -3.38301 0
M  V30 12335 H 1193.77 4.09726 -1.66063 0
M  V30 12336 N 1192.83 1.32541 0.852676 0
M  V30 12337 C 1194.05 1.2636 1.64462 0
M  V30 12338 C 1194.48 -0.16508 1.87374 0
M  V30 12339 O 1193.83 -1.11712 1.42794 0
M  V30 12340 C 1193.88 2.03052 2.97997 0
M  V30 12341 O 1192.99 1.37967 3.88637 0
M  V30 12342 H 1192.33 0.435393 0.501327 0
M  V30 12343 H 1194.86 1.74888 1.06186 0
M  V30 12344 H 1194.87 2.133 3.47803 0
M  V30 12345 H 1193.54 3.06941 2.80642 0
M  V30 12346 H 1192.12 1.36279 3.47106 0
M  V30 12347 N 1194.3 -1.0692 1.15784 0
M  V30 12348 C 1195.55 -1.79866 0.936815 0
M  V30 12349 C 1195.88 -1.867 -0.534477 0
M  V30 12350 O 1195.16 -1.35395 -1.39637 0
M  V30 12351 C 1195.44 -3.24691 1.55717 0
M  V30 12352 C 1195.29 -3.25975 3.09936 0
M  V30 12353 C 1196.61 -4.22076 1.24658 0
M  V30 12354 H 1193.73 -0.652971 0.341756 0
M  V30 12355 H 1196.37 -1.25085 1.43016 0
M  V30 12356 H 1194.52 -3.7147 1.13763 0
M  V30 12357 H 1196.2 -2.87405 3.60827 0
M  V30 12358 H 1194.44 -2.64808 3.43597 0
M  V30 12359 H 1195.11 -4.28114 3.48458 0
M  V30 12360 H 1197.59 -3.83709 1.60956 0
M  V30 12361 H 1196.46 -5.21691 1.70675 0
M  V30 12362 H 1196.72 -4.41794 0.164341 0
M  V30 12363 N 1195.78 -0.955326 -1.25345 0
M  V30 12364 C 1197.19 -0.651118 -1.74978 0
M  V30 12365 C 1197.54 0.833495 -1.77616 0
M  V30 12366 O 1196.67 1.65228 -1.39745 0
M  V30 12367 C 1197.26 -1.17521 -3.17764 0
M  V30 12368 C 1195.82 -0.921151 -3.64954 0
M  V30 12369 C 1194.97 -1.31784 -2.43984 0
M  V30 12370 H 1197.92 -1.13205 -1.11222 0
M  V30 12371 H 1197.94 -0.535625 -3.76711 0
M  V30 12372 H 1197.45 -2.25575 -3.15813 0
M  V30 12373 H 1195.56 0.144392 -3.7232 0
M  V30 12374 H 1195.67 -1.5581 -4.53056 0
M  V30 12375 H 1194.03 -0.736219 -2.43828 0
M  V30 12376 H 1194.82 -2.40761 -2.44723 0
M  V30 12377 N 1197.26 1.39987 -0.723979 0
M  V30 12378 C 1198.19 2.3332 -0.0917282 0
M  V30 12379 C 1199.17 1.53335 0.736361 0
M  V30 12380 O 1200.36 1.81771 0.683582 0
M  V30 12381 C 1197.49 3.3737 0.824549 0
M  V30 12382 C 1196.44 4.2788 0.101452 0
M  V30 12383 C 1195.77 5.22536 1.13401 0
M  V30 12384 C 1197.07 5.11649 -1.04939 0
M  V30 12385 H 1198.76 2.86441 -0.871318 0
M  V30 12386 H 1196.31 1.37725 -0.420448 0
M  V30 12387 H 1198.26 4.01607 1.27631 0
M  V30 12388 H 1196.98 2.82663 1.63613 0
M  V30 12389 H 1195.64 3.65107 -0.330569 0
M  V30 12390 H 1195.29 4.64131 1.93886 0
M  V30 12391 H 1194.99 5.83938 0.65502 0
M  V30 12392 H 1196.52 5.89651 1.58569 0
M  V30 12393 H 1197.93 5.69293 -0.6766 0
M  V30 12394 H 1196.33 5.82137 -1.45729 0
M  V30 12395 H 1197.4 4.47132 -1.8762 0
M  V30 12396 N 1198.74 0.470782 1.50404 0
M  V30 12397 C 1200.15 0.0155901 1.86693 0
M  V30 12398 C 1200.5 -1.38908 1.38561 0
M  V30 12399 O 1199.63 -2.02971 0.750454 0
M  V30 12400 C 1200.22 0.0215152 3.38793 0
M  V30 12401 C 1198.78 -0.378206 3.74495 0
M  V30 12402 C 1197.93 0.407126 2.74295 0
M  V30 12403 H 1200.88 0.68507 1.43152 0
M  V30 12404 H 1200.9 -0.780717 3.72404 0
M  V30 12405 H 1200.41 1.04397 3.73795 0
M  V30 12406 H 1198.51 -1.40503 3.45094 0
M  V30 12407 H 1198.63 -0.0797643 4.79034 0
M  V30 12408 H 1196.99 -0.139123 2.5432 0
M  V30 12409 H 1197.77 1.42909 3.12141 0
M  V30 12410 N 1200.22 -1.56282 0.203376 0
M  V30 12411 C 1201.15 -2.2247 -0.709183 0
M  V30 12412 C 1202.13 -1.19046 -1.21499 0
M  V30 12413 O 1203.31 -1.47578 -1.26231 0
M  V30 12414 C 1200.44 -2.8905 -1.92529 0
M  V30 12415 C 1199.4 -3.98789 -1.55407 0
M  V30 12416 C 1198.72 -4.52574 -2.84747 0
M  V30 12417 C 1200.02 -5.16774 -0.75775 0
M  V30 12418 H 1201.72 -2.98986 -0.157392 0
M  V30 12419 H 1199.26 -1.43808 -0.0742613 0
M  V30 12420 H 1201.22 -3.34038 -2.56898 0
M  V30 12421 H 1199.94 -2.09952 -2.50175 0
M  V30 12422 H 1198.6 -3.54504 -0.933928 0
M  V30 12423 H 1198.25 -3.70229 -3.40499 0
M  V30 12424 H 1197.95 -5.26627 -2.6065 0
M  V30 12425 H 1199.47 -5.00269 -3.5009 0
M  V30 12426 H 1200.89 -5.58256 -1.30472 0
M  V30 12427 H 1199.28 -5.96945 -0.614583 0
M  V30 12428 H 1200.35 -4.84308 0.239476 0
M  V30 12429 N 1201.7 0.070167 -1.57444 0
M  V30 12430 C 1202.94 0.767495 -1.8696 0
M  V30 12431 C 1203.26 1.78032 -0.795595 0
M  V30 12432 O 1202.53 1.95112 0.175566 0
M  V30 12433 H 1201.11 0.286443 -0.689898 0
M  V30 12434 H 1203.78 0.0458692 -1.94846 0
M  V30 12435 H 1202.87 1.28269 -2.84523 0
M  V30 12436 N 1203.17 1.53854 0.341593 0
M  V30 12437 C 1204.41 1.72909 1.09004 0
M  V30 12438 C 1204.78 0.48304 1.85824 0
M  V30 12439 O 1205.98 0.550651 2.63099 0
M  V30 12440 C 1204.25 2.95884 2.00468 0
M  V30 12441 S 1205.81 3.3576 2.82508 0
M  V30 12442 H 1202.63 0.608187 0.368279 0
M  V30 12443 H 1205.23 1.92001 0.368222 0
M  V30 12444 H 1203.93 3.84742 1.42836 0
M  V30 12445 H 1203.46 2.79263 2.77084 0
M  V30 12446 H 1205.48 2.89647 4.02888 0
M  V30 12447 N 1204.65 -0.602709 1.4562 0
M  V30 12448 C 1205.9 -1.35769 1.49163 0
M  V30 12449 C 1206.21 -1.95102 0.139485 0
M  V30 12450 O 1207.42 -2.71449 0.0525919 0
M  V30 12451 C 1205.88 -2.45959 2.62739 0
M  V30 12452 C 1205.48 -1.93017 4.04288 0
M  V30 12453 C 1207.23 -3.22926 2.75534 0
M  V30 12454 C 1205.13 -3.00718 5.09237 0
M  V30 12455 H 1204.06 -0.510317 0.555061 0
M  V30 12456 H 1206.72 -0.645434 1.71774 0
M  V30 12457 H 1205.1 -3.19892 2.3342 0
M  V30 12458 H 1206.27 -1.2576 4.43307 0
M  V30 12459 H 1204.59 -1.2878 3.95986 0
M  V30 12460 H 1207.18 -4.03267 3.51112 0
M  V30 12461 H 1207.53 -3.74243 1.82339 0
M  V30 12462 H 1208.06 -2.56095 3.04402 0
M  V30 12463 H 1204.8 -2.54312 6.04157 0
M  V30 12464 H 1204.32 -3.66526 4.74783 0
M  V30 12465 H 1206 -3.65016 5.34202 0
M  V30 12466 N 1206.13 -1.32992 -0.845635 0
M  V30 12467 C 1207.36 -1.27087 -1.63268 0
M  V30 12468 C 1207.77 0.159481 -1.88125 0
M  V30 12469 O 1207.13 1.09948 -1.45663 0
M  V30 12470 C 1207.18 -2.03649 -2.98679 0
M  V30 12471 O 1206.9 -3.41104 -2.74918 0
M  V30 12472 C 1208.4 -2.04875 -3.93117 0
M  V30 12473 H 1205.62 -0.438107 -0.508236 0
M  V30 12474 H 1208.17 -1.75257 -1.05381 0
M  V30 12475 H 1206.32 -1.59178 -3.53187 0
M  V30 12476 H 1206.74 -3.80405 -3.61099 0
M  V30 12477 H 1208.21 -2.62911 -4.85368 0
M  V30 12478 H 1208.69 -1.03728 -4.26775 0
M  V30 12479 H 1209.29 -2.49334 -3.44547 0
M  V30 12480 N 1207.61 1.06304 -1.1635 0
M  V30 12481 C 1208.86 1.78487 -0.939423 0
M  V30 12482 C 1209.17 1.8817 0.533998 0
M  V30 12483 O 1210.38 2.56981 0.875962 0
M  V30 12484 C 1208.83 3.20796 -1.63149 0
M  V30 12485 C 1208.44 3.19281 -3.14267 0
M  V30 12486 C 1210.18 3.97514 -1.48938 0
M  V30 12487 C 1208.09 4.56309 -3.76213 0
M  V30 12488 H 1207.02 0.668973 -0.347837 0
M  V30 12489 H 1209.67 1.19237 -1.3948 0
M  V30 12490 H 1208.05 3.80305 -1.10382 0
M  V30 12491 H 1209.23 2.69356 -3.73877 0
M  V30 12492 H 1207.54 2.56062 -3.28362 0
M  V30 12493 H 1210.14 4.98808 -1.926 0
M  V30 12494 H 1210.48 4.13986 -0.438319 0
M  V30 12495 H 1211.02 3.44528 -1.98861 0
M  V30 12496 H 1207.75 4.45042 -4.81267 0
M  V30 12497 H 1207.27 5.06429 -3.21388 0
M  V30 12498 H 1208.95 5.25266 -3.77762 0
M  V30 12499 N 1209.09 0.96196 1.24836 0
M  V30 12500 C 1210.02 0.506241 2.27946 0
M  V30 12501 C 1211 -0.451183 1.64007 0
M  V30 12502 O 1212.18 -0.348552 1.91046 0
M  V30 12503 C 1209.31 -0.209846 3.46665 0
M  V30 12504 C 1208.27 0.663035 4.22833 0
M  V30 12505 C 1207.59 -0.184216 5.34383 0
M  V30 12506 C 1208.89 1.94479 4.84742 0
M  V30 12507 H 1210.59 1.36805 2.66317 0
M  V30 12508 H 1208.13 0.65926 1.28023 0
M  V30 12509 H 1210.08 -0.539838 4.17928 0
M  V30 12510 H 1208.81 -1.10596 3.07305 0
M  V30 12511 H 1207.47 0.976216 3.53363 0
M  V30 12512 H 1207.12 -1.08031 4.91262 0
M  V30 12513 H 1206.82 0.39657 5.8626 0
M  V30 12514 H 1208.34 -0.509009 6.08475 0
M  V30 12515 H 1209.75 1.68074 5.48109 0
M  V30 12516 H 1208.15 2.47183 5.46828 0
M  V30 12517 H 1209.22 2.64332 4.06517 0
M  V30 12518 N 1210.56 -1.39601 0.731392 0
M  V30 12519 C 1211.81 -2.00586 0.277756 0
M  V30 12520 C 1212.14 -1.58027 -1.13391 0
M  V30 12521 O 1211.39 -0.798691 -1.7866 0
M  V30 12522 C 1211.69 -3.55934 0.323352 0
M  V30 12523 C 1211.36 -4.18131 1.68753 0
M  V30 12524 C 1210.02 -4.34833 2.06092 0
M  V30 12525 C 1212.37 -4.5267 2.58339 0
M  V30 12526 C 1209.7 -4.83362 3.32532 0
M  V30 12527 C 1212.05 -5.02607 3.84148 0
M  V30 12528 C 1210.72 -5.17517 4.21584 0
M  V30 12529 H 1209.99 -0.733996 0.101638 0
M  V30 12530 H 1212.63 -1.66981 0.937528 0
M  V30 12531 H 1210.94 -3.89542 -0.419995 0
M  V30 12532 H 1212.64 -4.00974 -0.0457235 0
M  V30 12533 H 1209.23 -4.0553 1.38722 0
M  V30 12534 H 1213.41 -4.39388 2.30763 0
M  V30 12535 H 1208.67 -4.93091 3.61485 0
M  V30 12536 H 1212.84 -5.28306 4.53724 0
M  V30 12537 H 1210.47 -5.54882 5.19625 0
M  V30 12538 N 1212.04 -0.478751 -1.50152 0
M  V30 12539 C 1213.29 0.07531 -2.01559 0
M  V30 12540 C 1213.6 1.40089 -1.36508 0
M  V30 12541 O 1214.81 2.04035 -1.79115 0
M  V30 12542 C 1213.27 0.184714 -3.59426 0
M  V30 12543 C 1212.87 -1.13289 -4.33439 0
M  V30 12544 C 1214.62 0.690326 -4.18849 0
M  V30 12545 C 1212.53 -0.986866 -5.83108 0
M  V30 12546 H 1211.46 0.0319196 -0.753324 0
M  V30 12547 H 1214.11 -0.614809 -1.72894 0
M  V30 12548 H 1212.49 0.938788 -3.84711 0
M  V30 12549 H 1213.66 -1.89852 -4.19872 0
M  V30 12550 H 1211.98 -1.57021 -3.8566 0
M  V30 12551 H 1214.57 0.816733 -5.28426 0
M  V30 12552 H 1214.92 1.68361 -3.80737 0
M  V30 12553 H 1215.45 -0.00657846 -3.97799 0
M  V30 12554 H 1212.19 -1.95375 -6.25707 0
M  V30 12555 H 1211.71 -0.261752 -5.99229 0
M  V30 12556 H 1213.39 -0.656567 -6.4366 0
M  V30 12557 N 1213.52 1.56172 -0.211661 0
M  V30 12558 C 1214.43 2.23468 0.714081 0
M  V30 12559 C 1215.45 1.23908 1.22159 0
M  V30 12560 O 1216.62 1.56693 1.26528 0
M  V30 12561 C 1213.69 2.89375 1.90953 0
M  V30 12562 C 1212.75 4.04251 1.44497 0
M  V30 12563 C 1211.98 4.67006 2.58343 0
M  V30 12564 O 1212.2 4.28721 3.76237 0
M  V30 12565 O 1211.14 5.56177 2.3011 0
M  V30 12566 H 1214.96 3.03219 0.170862 0
M  V30 12567 H 1212.55 1.49389 0.0183607 0
M  V30 12568 H 1214.43 3.3101 2.60787 0
M  V30 12569 H 1213.11 2.12591 2.44104 0
M  V30 12570 H 1212.01 3.67205 0.714932 0
M  V30 12571 H 1213.35 4.82748 0.959947 0
M  V30 12572 N 1215 -0.0618163 1.57479 0
M  V30 12573 C 1215.93 -1.07252 2.07411 0
M  V30 12574 C 1216.91 -1.39756 0.969649 0
M  V30 12575 O 1218.09 -1.4921 1.24298 0
M  V30 12576 C 1215.22 -2.38313 2.52635 0
M  V30 12577 C 1214.18 -2.20136 3.67048 0
M  V30 12578 C 1213.5 -3.56668 3.98361 0
M  V30 12579 C 1214.8 -1.61437 4.96725 0
M  V30 12580 H 1216.5 -0.656983 2.92103 0
M  V30 12581 H 1214.04 -0.314579 1.40522 0
M  V30 12582 H 1216 -3.09319 2.86181 0
M  V30 12583 H 1214.72 -2.81865 1.64984 0
M  V30 12584 H 1213.38 -1.51569 3.338 0
M  V30 12585 H 1213.03 -3.97809 3.07826 0
M  V30 12586 H 1212.73 -3.45342 4.75408 0
M  V30 12587 H 1214.25 -4.2909 4.34413 0
M  V30 12588 H 1215.67 -2.2232 5.28438 0
M  V30 12589 H 1214.06 -1.60779 5.78161 0
M  V30 12590 H 1215.13 -0.576795 4.81457 0
M  V30 12591 N 1216.48 -1.54033 -0.333429 0
M  V30 12592 C 1217.72 -1.73485 -1.08085 0
M  V30 12593 C 1218.08 -0.492888 -1.85566 0
M  V30 12594 O 1219.28 -0.564596 -2.62804 0
M  V30 12595 C 1217.55 -2.96943 -1.98896 0
M  V30 12596 S 1219.11 -3.37253 -2.80724 0
M  V30 12597 H 1215.93 -0.610131 -0.365049 0
M  V30 12598 H 1218.53 -1.92194 -0.358034 0
M  V30 12599 H 1217.24 -3.85494 -1.40794 0
M  V30 12600 H 1216.77 -2.80729 -2.75599 0
M  V30 12601 H 1218.78 -2.9178 -4.01347 0
M  V30 12602 N 1217.95 0.594978 -1.45938 0
M  V30 12603 C 1219.18 1.37994 -1.5416 0
M  V30 12604 C 1219.6 1.87954 -0.17848 0
M  V30 12605 O 1218.95 1.62932 0.822161 0
M  V30 12606 C 1219.01 2.57586 -2.53637 0
M  V30 12607 O 1218.73 2.09698 -3.84653 0
M  V30 12608 C 1220.23 3.50292 -2.71681 0
M  V30 12609 H 1217.45 0.421983 -0.5217 0
M  V30 12610 H 1219.99 0.724459 -1.91238 0
M  V30 12611 H 1218.15 3.19149 -2.19597 0
M  V30 12612 H 1218.56 2.87492 -4.3869 0
M  V30 12613 H 1220.03 4.30717 -3.45234 0
M  V30 12614 H 1220.51 4.01444 -1.78156 0
M  V30 12615 H 1221.12 2.94573 -3.06768 0
M  V30 12616 N 1219.43 1.33438 0.838571 0
M  V30 12617 C 1220.71 1.1551 1.5785 0
M  V30 12618 C 1221.09 -0.278405 2.09256 0
M  V30 12619 O 1220.44 -1.27748 1.89453 0
M  V30 12620 C 1220.65 2.19647 2.71212 0
M  V30 12621 C 1222 2.53818 3.40384 0
M  V30 12622 O 1223.02 2.18317 2.81454 0
M  V30 12623 O 1221.88 3.14741 4.46766 0
M  V30 12624 H 1218.97 0.446785 0.695925 0
M  V30 12625 H 1221.52 1.45021 0.8813 0
M  V30 12626 H 1220.29 3.15936 2.30869 0
M  V30 12627 H 1219.91 1.91224 3.48596 0
M  V30 12628 N 1220.91 -1.05686 1.16912 0
M  V30 12629 C 1222.16 -1.77987 0.948875 0
M  V30 12630 C 1222.47 -1.8845 -0.524011 0
M  V30 12631 O 1223.68 -2.57442 -0.862322 0
M  V30 12632 C 1222.13 -3.19927 1.64848 0
M  V30 12633 C 1221.74 -3.1761 3.15956 0
M  V30 12634 C 1223.49 -3.96719 1.51044 0
M  V30 12635 C 1221.39 -4.54307 3.78628 0
M  V30 12636 H 1220.32 -0.667119 0.35138 0
M  V30 12637 H 1222.97 -1.18496 1.40111 0
M  V30 12638 H 1221.36 -3.79714 1.12397 0
M  V30 12639 H 1222.53 -2.67369 3.75301 0
M  V30 12640 H 1220.85 -2.54317 3.29715 0
M  V30 12641 H 1223.44 -4.97779 1.95243 0
M  V30 12642 H 1223.79 -4.13748 0.460268 0
M  V30 12643 H 1224.32 -3.43468 2.00685 0
M  V30 12644 H 1221.06 -4.42484 4.8362 0
M  V30 12645 H 1220.58 -5.04717 3.24069 0
M  V30 12646 H 1222.26 -5.23255 3.80543 0
M  V30 12647 N 1222.39 -0.968567 -1.24324 0
M  V30 12648 C 1223.64 -0.630928 -1.9242 0
M  V30 12649 C 1223.96 0.834001 -1.75712 0
M  V30 12650 O 1223.22 1.61558 -1.10442 0
M  V30 12651 C 1223.52 -0.952762 -3.44467 0
M  V30 12652 C 1223.18 -2.40597 -3.81345 0
M  V30 12653 C 1221.85 -2.80316 -3.91122 0
M  V30 12654 C 1224.2 -3.34906 -3.99359 0
M  V30 12655 C 1221.53 -4.13383 -4.16331 0
M  V30 12656 C 1223.88 -4.67602 -4.26065 0
M  V30 12657 C 1222.54 -5.07097 -4.34061 0
M  V30 12658 H 1221.81 -0.230873 -0.704116 0
M  V30 12659 H 1224.46 -1.22022 -1.47591 0
M  V30 12660 H 1222.76 -0.281244 -3.90789 0
M  V30 12661 H 1224.46 -0.6699 -3.95365 0
M  V30 12662 H 1221.05 -2.088 -3.743 0
M  V30 12663 H 1225.23 -3.05404 -3.91206 0
M  V30 12664 H 1220.49 -4.43606 -4.20742 0
M  V30 12665 H 1224.66 -5.40646 -4.38948 0
M  V30 12666 H 1222.29 -6.10229 -4.53349 0
M  V30 12667 N 1223.87 1.39211 -0.738786 0
M  V30 12668 C 1225.28 1.83237 -0.357916 0
M  V30 12669 C 1225.63 1.61698 1.11123 0
M  V30 12670 O 1224.75 1.11017 1.85753 0
M  V30 12671 C 1225.35 3.32645 -0.64285 0
M  V30 12672 C 1223.91 3.75076 -0.315432 0
M  V30 12673 C 1223.05 2.62166 -0.903556 0
M  V30 12674 H 1226.01 1.2815 -0.936127 0
M  V30 12675 H 1226.03 3.80407 0.0840812 0
M  V30 12676 H 1225.54 3.4829 -1.71218 0
M  V30 12677 H 1223.64 3.65017 0.747907 0
M  V30 12678 H 1223.75 4.72363 -0.800638 0
M  V30 12679 H 1222.12 2.52554 -0.329927 0
M  V30 12680 H 1222.9 2.80616 -1.97761 0
M  V30 12681 N 1225.34 0.486708 1.49896 0
M  V30 12682 C 1226.57 -0.0622999 2.07306 0
M  V30 12683 C 1226.99 -1.31353 1.3464 0
M  V30 12684 O 1226.35 -1.76861 0.398752 0
M  V30 12685 C 1226.4 -0.313481 3.59235 0
M  V30 12686 O 1225.5 -1.39101 3.88233 0
M  V30 12687 H 1224.85 0.0198885 0.663702 0
M  V30 12688 H 1227.38 0.682232 1.92891 0
M  V30 12689 H 1227.39 -0.549302 4.04285 0
M  V30 12690 H 1226.06 0.600767 4.11538 0
M  V30 12691 H 1224.64 -1.14127 3.55006 0
M  V30 12692 N 1226.82 -1.56058 0.219941 0
M  V30 12693 C 1228.07 -1.98554 -0.412808 0
M  V30 12694 C 1228.4 -1.10742 -1.5953 0
M  V30 12695 O 1227.68 -0.164757 -1.93801 0
M  V30 12696 C 1227.96 -3.4995 -0.848923 0
M  V30 12697 C 1227.81 -4.48535 0.337094 0
M  V30 12698 C 1229.13 -4.05703 -1.70567 0
M  V30 12699 H 1226.25 -0.721869 -0.148576 0
M  V30 12700 H 1228.89 -1.87356 0.315852 0
M  V30 12701 H 1227.04 -3.59624 -1.46979 0
M  V30 12702 H 1228.72 -4.50874 0.975216 0
M  V30 12703 H 1226.96 -4.22474 0.984798 0
M  V30 12704 H 1227.63 -5.51999 -0.0109665 0
M  V30 12705 H 1230.11 -3.98964 -1.18182 0
M  V30 12706 H 1228.98 -5.11955 -1.97972 0
M  V30 12707 H 1229.24 -3.52487 -2.66844 0
M  V30 12708 N 1228.3 0.053464 -1.57509 0
M  V30 12709 C 1229.53 0.765301 -1.92764 0
M  V30 12710 C 1229.95 1.69385 -0.817943 0
M  V30 12711 O 1229.31 1.7986 0.228075 0
M  V30 12712 C 1229.36 1.51938 -3.27028 0
M  V30 12713 O 1228.46 2.63121 -3.17555 0
M  V30 12714 H 1227.8 0.207567 -0.630723 0
M  V30 12715 H 1230.33 0.0162254 -2.04594 0
M  V30 12716 H 1230.34 1.89466 -3.6134 0
M  V30 12717 H 1229.02 0.838207 -4.07366 0
M  V30 12718 H 1227.59 2.28316 -2.94832 0
M  V30 12719 N 1229.78 1.54207 0.325255 0
M  V30 12720 C 1230.71 1.86467 1.40543 0
M  V30 12721 C 1231.69 0.721324 1.54048 0
M  V30 12722 O 1232.88 0.974905 1.67956 0
M  V30 12723 C 1230.01 2.09052 2.77335 0
M  V30 12724 C 1228.96 3.24893 2.78619 0
M  V30 12725 C 1228.29 3.32846 4.1847 0
M  V30 12726 C 1229.59 4.62582 2.42518 0
M  V30 12727 H 1231.28 2.76932 1.13794 0
M  V30 12728 H 1228.83 1.33248 0.545971 0
M  V30 12729 H 1230.78 2.30204 3.52964 0
M  V30 12730 H 1229.5 1.15335 3.05558 0
M  V30 12731 H 1228.16 3.03625 2.05444 0
M  V30 12732 H 1227.81 2.3669 4.43832 0
M  V30 12733 H 1227.51 4.10701 4.20237 0
M  V30 12734 H 1229.03 3.56231 4.95915 0
M  V30 12735 H 1230.45 4.83627 3.07861 0
M  V30 12736 H 1228.84 5.42974 2.55538 0
M  V30 12737 H 1229.91 4.64946 1.3767 0
M  V30 12738 N 1231.26 -0.58723 1.46251 0
M  V30 12739 C 1232.22 -1.67863 1.5606 0
M  V30 12740 C 1233.22 -1.54715 0.438162 0
M  V30 12741 O 1234.41 -1.59415 0.702323 0
M  V30 12742 C 1231.54 -3.07262 1.47659 0
M  V30 12743 H 1232.74 -1.60525 2.53321 0
M  V30 12744 H 1230.29 -0.804691 1.33994 0
M  V30 12745 H 1231.02 -3.20159 0.5166 0
M  V30 12746 H 1230.81 -3.18213 2.29092 0
M  V30 12747 H 1232.3 -3.8672 1.57599 0
M  V30 12748 N 1232.74 -1.33881 -0.831482 0
M  V30 12749 C 1233.97 -1.28625 -1.61676 0
M  V30 12750 C 1234.37 0.143588 -1.88654 0
M  V30 12751 O 1233.72 1.09847 -1.47239 0
M  V30 12752 C 1233.78 -2.00022 -2.98716 0
M  V30 12753 C 1233.44 -3.49309 -2.94674 0
M  V30 12754 C 1234.44 -4.44375 -2.69864 0
M  V30 12755 C 1232.12 -3.91596 -3.14576 0
M  V30 12756 C 1234.12 -5.79703 -2.64996 0
M  V30 12757 C 1231.81 -5.27026 -3.09333 0
M  V30 12758 C 1232.8 -6.20892 -2.84575 0
M  V30 12759 O 1232.49 -7.53841 -2.79248 0
M  V30 12760 H 1232.22 -0.444235 -0.50954 0
M  V30 12761 H 1234.78 -1.76933 -1.04326 0
M  V30 12762 H 1233.01 -1.46316 -3.57951 0
M  V30 12763 H 1234.7 -1.88168 -3.59649 0
M  V30 12764 H 1235.46 -4.13027 -2.54231 0
M  V30 12765 H 1231.34 -3.18938 -3.32865 0
M  V30 12766 H 1234.89 -6.5294 -2.45591 0
M  V30 12767 H 1230.78 -5.57996 -3.24516 0
M  V30 12768 H 1231.55 -7.63476 -2.95037 0
M  V30 12769 N 1234.21 1.05064 -1.1747 0
M  V30 12770 C 1235.12 2.16346 -0.907286 0
M  V30 12771 C 1236.14 1.7355 0.125013 0
M  V30 12772 O 1237.32 2.01326 -0.0545551 0
M  V30 12773 C 1234.38 3.44077 -0.425681 0
M  V30 12774 C 1233.44 4.01311 -1.52473 0
M  V30 12775 C 1232.67 5.22946 -1.06601 0
M  V30 12776 O 1232.9 5.70345 0.0793329 0
M  V30 12777 O 1231.83 5.72454 -1.85958 0
M  V30 12778 H 1235.66 2.41754 -1.83817 0
M  V30 12779 H 1233.24 1.14834 -0.955693 0
M  V30 12780 H 1235.12 4.21078 -0.164689 0
M  V30 12781 H 1233.8 3.20166 0.477037 0
M  V30 12782 H 1232.71 3.25744 -1.83961 0
M  V30 12783 H 1234.04 4.29543 -2.4032 0
M  V30 12784 N 1235.69 0.975146 1.23809 0
M  V30 12785 C 1236.64 0.510761 2.25077 0
M  V30 12786 C 1237.61 -0.447605 1.59955 0
M  V30 12787 O 1238.79 -0.356318 1.87443 0
M  V30 12788 C 1235.93 -0.185755 3.446 0
M  V30 12789 C 1235.05 0.812254 4.24295 0
M  V30 12790 C 1234.18 0.0910835 5.31122 0
M  V30 12791 C 1233.22 1.07866 6.02521 0
M  V30 12792 N 1232.36 0.386995 7.01033 0
M  V30 12793 H 1237.2 1.37913 2.64166 0
M  V30 12794 H 1234.73 0.691184 1.2985 0
M  V30 12795 H 1236.69 -0.606341 4.1277 0
M  V30 12796 H 1235.32 -1.01803 3.06327 0
M  V30 12797 H 1234.37 1.35125 3.55592 0
M  V30 12798 H 1235.69 1.56502 4.73612 0
M  V30 12799 H 1234.84 -0.387129 6.05464 0
M  V30 12800 H 1233.58 -0.694324 4.82732 0
M  V30 12801 H 1232.58 1.56767 5.26976 0
M  V30 12802 H 1233.81 1.86464 6.52999 0
M  V30 12803 H 1231.76 -0.3793 6.54903 0
M  V30 12804 H 1231.67 1.0785 7.48268 0
M  V30 12805 H 1232.94 -0.0690036 7.79469 0
M  V30 12806 N 1237.17 -1.38817 0.746158 0
M  V30 12807 C 1238.13 -2.28876 0.121886 0
M  V30 12808 C 1239.13 -1.46838 -0.655379 0
M  V30 12809 O 1240.32 -1.67377 -0.482744 0
M  V30 12810 C 1237.45 -3.30487 -0.836118 0
M  V30 12811 H 1238.65 -2.85586 0.915453 0
M  V30 12812 H 1236.2 -1.47652 0.512691 0
M  V30 12813 H 1236.94 -2.78853 -1.65563 0
M  V30 12814 H 1236.72 -3.9109 -0.281271 0
M  V30 12815 H 1238.21 -3.97848 -1.26914 0
M  V30 12816 N 1238.65 -0.49465 -1.49636 0
M  V30 12817 C 1239.56 0.291881 -2.32777 0
M  V30 12818 C 1240.57 0.973468 -1.44221 0
M  V30 12819 O 1241.75 0.956252 -1.77251 0
M  V30 12820 C 1238.81 1.34609 -3.19502 0
M  V30 12821 C 1237.88 0.678611 -4.23903 0
M  V30 12822 C 1237.11 1.68259 -5.06483 0
M  V30 12823 O 1237.33 2.91176 -4.90482 0
M  V30 12824 O 1236.27 1.24141 -5.88959 0
M  V30 12825 H 1240.09 -0.388459 -3.01205 0
M  V30 12826 H 1237.68 -0.256086 -1.47189 0
M  V30 12827 H 1239.56 1.95617 -3.73245 0
M  V30 12828 H 1238.23 2.00947 -2.53775 0
M  V30 12829 H 1237.14 0.0289541 -3.74089 0
M  V30 12830 H 1238.47 0.0577817 -4.92166 0
M  V30 12831 N 1240.13 1.55939 -0.228214 0
M  V30 12832 C 1241.35 2.0332 0.409364 0
M  V30 12833 C 1241.78 1.10683 1.52088 0
M  V30 12834 O 1241.13 0.0962484 1.81044 0
M  V30 12835 C 1241.18 3.48877 0.911981 0
M  V30 12836 O 1240.29 3.59378 2.02289 0
M  V30 12837 H 1239.63 0.657625 0.0917909 0
M  V30 12838 H 1242.16 2.01605 -0.348802 0
M  V30 12839 H 1242.17 3.89331 1.22007 0
M  V30 12840 H 1240.84 4.15783 0.0984902 0
M  V30 12841 H 1239.42 3.30815 1.72093 0
M  V30 12842 N 1241.6 -0.0451101 1.57535 0
M  V30 12843 C 1242.88 -0.773625 1.79651 0
M  V30 12844 C 1243.26 -1.94422 0.822391 0
M  V30 12845 O 1242.61 -2.28077 -0.138913 0
M  V30 12846 C 1242.82 -1.22168 3.26919 0
M  V30 12847 C 1244.17 -1.64419 3.91474 0
M  V30 12848 O 1245.19 -1.31668 3.30971 0
M  V30 12849 O 1244.05 -2.25148 4.97967 0
M  V30 12850 H 1241.14 -0.372786 0.738214 0
M  V30 12851 H 1243.69 -0.0231245 1.69684 0
M  V30 12852 H 1242.46 -0.385302 3.89398 0
M  V30 12853 H 1242.09 -2.03269 3.41713 0
M  V30 12854 N 1243.08 -1.54377 -0.317073 0
M  V30 12855 C 1244.33 -1.72105 -1.0518 0
M  V30 12856 C 1244.64 -0.505166 -1.88964 0
M  V30 12857 O 1245.85 -0.563912 -2.65579 0
M  V30 12858 C 1244.31 -3.04435 -1.91957 0
M  V30 12859 C 1243.91 -4.33449 -1.13253 0
M  V30 12860 C 1245.66 -3.31524 -2.65127 0
M  V30 12861 C 1243.57 -5.56837 -1.99214 0
M  V30 12862 H 1242.5 -0.641392 -0.396399 0
M  V30 12863 H 1245.15 -1.80868 -0.309673 0
M  V30 12864 H 1243.53 -2.89595 -2.70094 0
M  V30 12865 H 1244.7 -4.59074 -0.39842 0
M  V30 12866 H 1243.02 -4.13173 -0.517372 0
M  V30 12867 H 1245.61 -4.20906 -3.29761 0
M  V30 12868 H 1245.96 -2.49688 -3.33109 0
M  V30 12869 H 1246.49 -3.47261 -1.94048 0
M  V30 12870 H 1243.23 -6.41294 -1.35729 0
M  V30 12871 H 1242.75 -5.35421 -2.70341 0
M  V30 12872 H 1244.43 -5.93488 -2.57646 0
M  V30 12873 N 1244.56 0.579466 -1.4656 0
M  V30 12874 C 1245.49 1.7031 -1.51887 0
M  V30 12875 C 1246.47 1.58271 -0.372721 0
M  V30 12876 O 1247.66 1.79441 -0.577336 0
M  V30 12877 C 1244.78 3.0839 -1.40048 0
M  V30 12878 C 1243.83 3.3894 -2.58886 0
M  V30 12879 S 1244.66 3.30652 -4.21224 0
M  V30 12880 C 1245.82 4.71264 -4.119 0
M  V30 12881 H 1246.05 1.65533 -2.46954 0
M  V30 12882 H 1243.58 0.758477 -1.34486 0
M  V30 12883 H 1245.54 3.88046 -1.33905 0
M  V30 12884 H 1244.2 3.10653 -0.464048 0
M  V30 12885 H 1243.4 4.39547 -2.46605 0
M  V30 12886 H 1243 2.66858 -2.62036 0
M  V30 12887 H 1245.29 5.61722 -3.7878 0
M  V30 12888 H 1246.23 4.88602 -5.12517 0
M  V30 12889 H 1246.64 4.48266 -3.43101 0
M  V30 12890 N 1246.04 1.3432 0.824371 0
M  V30 12891 C 1246.99 1.22332 1.92403 0
M  V30 12892 C 1247.97 0.122709 1.60431 0
M  V30 12893 O 1249.16 0.352231 1.7346 0
M  V30 12894 C 1246.29 0.979497 3.2903 0
M  V30 12895 C 1245.38 2.12322 3.67124 0
M  V30 12896 N 1245.77 3.3743 3.76795 0
M  V30 12897 C 1244.07 2.03314 3.96963 0
M  V30 12898 C 1244.77 4.12532 4.10113 0
M  V30 12899 N 1243.75 3.41109 4.23256 0
M  V30 12900 H 1247.55 2.17143 1.98056 0
M  V30 12901 H 1245.06 1.26537 1.01795 0
M  V30 12902 H 1247.06 0.874525 4.07624 0
M  V30 12903 H 1245.72 0.0400611 3.24675 0
M  V30 12904 H 1246.73 3.72001 3.60327 0
M  V30 12905 H 1243.41 1.17118 4.00736 0
M  V30 12906 H 1244.8 5.20562 4.24811 0
M  V30 12907 N 1247.52 -1.0444 1.18026 0
M  V30 12908 C 1248.45 -2.14297 0.927314 0
M  V30 12909 C 1249.43 -1.69575 -0.13357 0
M  V30 12910 O 1250.61 -1.94191 0.0182439 0
M  V30 12911 C 1247.74 -3.44397 0.448134 0
M  V30 12912 C 1246.7 -4.02723 1.44907 0
M  V30 12913 C 1246.02 -5.28257 0.827555 0
M  V30 12914 C 1247.32 -4.39331 2.82463 0
M  V30 12915 H 1249.02 -2.35715 1.84605 0
M  V30 12916 H 1246.56 -1.13281 0.889012 0
M  V30 12917 H 1248.52 -4.20606 0.258554 0
M  V30 12918 H 1247.24 -3.22654 -0.506159 0
M  V30 12919 H 1245.9 -3.28591 1.62552 0
M  V30 12920 H 1245.55 -5.02822 -0.13381 0
M  V30 12921 H 1245.25 -5.68242 1.49581 0
M  V30 12922 H 1246.77 -6.07147 0.64842 0
M  V30 12923 H 1248.18 -5.06543 2.68491 0
M  V30 12924 H 1246.58 -4.90355 3.45936 0
M  V30 12925 H 1247.65 -3.4933 3.36299 0
M  V30 12926 N 1248.99 -0.981699 -1.2329 0
M  V30 12927 C 1250.41 -0.690539 -1.43888 0
M  V30 12928 C 1250.61 0.742816 -1.87309 0
M  V30 12929 O 1249.67 1.5151 -2.01993 0
M  V30 12930 C 1250.98 -1.68657 -2.48948 0
M  V30 12931 C 1252.53 -1.70076 -2.62761 0
M  V30 12932 C 1253 -2.68513 -3.71032 0
M  V30 12933 N 1254.49 -2.67039 -3.78476 0
M  V30 12934 C 1255.23 -3.39874 -4.61815 0
M  V30 12935 N 1254.72 -4.22273 -5.49233 0
M  V30 12936 N 1256.52 -3.28633 -4.56023 0
M  V30 12937 H 1248.67 -1.90758 -0.934077 0
M  V30 12938 H 1250.93 -0.822058 -0.472149 0
M  V30 12939 H 1250.64 -2.7117 -2.23964 0
M  V30 12940 H 1250.51 -1.47045 -3.47358 0
M  V30 12941 H 1252.9 -0.682673 -2.87095 0
M  V30 12942 H 1252.98 -1.95754 -1.64663 0
M  V30 12943 H 1252.62 -3.70464 -3.47446 0
M  V30 12944 H 1252.55 -2.40109 -4.68674 0
M  V30 12945 H 1255.04 -2.07241 -3.16006 0
M  V30 12946 H 1255.36 -4.74702 -6.09818 0
M  V30 12947 H 1253.7 -4.26364 -5.48852 0
M  V30 12948 H 1256.89 -2.6371 -3.86749 0
M  V30 12949 H 1257.07 -3.85656 -5.20743 0
M  V30 12950 N 1250.47 1.3842 -0.753509 0
M  V30 12951 C 1251.88 1.82847 -0.377331 0
M  V30 12952 C 1252.23 1.62867 1.09401 0
M  V30 12953 O 1251.36 1.12981 1.84565 0
M  V30 12954 C 1251.95 3.31945 -0.678095 0
M  V30 12955 C 1250.51 3.7472 -0.355196 0
M  V30 12956 C 1249.66 2.61193 -0.931311 0
M  V30 12957 H 1252.61 1.2715 -0.949667 0
M  V30 12958 H 1252.63 3.80475 0.0437292 0
M  V30 12959 H 1252.14 3.46455 -1.74902 0
M  V30 12960 H 1250.25 3.65789 0.70915 0
M  V30 12961 H 1250.36 4.71487 -0.850693 0
M  V30 12962 H 1248.72 2.5219 -0.356695 0
M  V30 12963 H 1249.51 2.78503 -2.00727 0
M  V30 12964 N 1251.95 0.502579 1.49372 0
M  V30 12965 C 1253.37 0.158641 1.5881 0
M  V30 12966 C 1253.57 -1.33688 1.50764 0
M  V30 12967 O 1252.62 -2.11295 1.38241 0
M  V30 12968 C 1253.94 0.736843 2.91532 0
M  V30 12969 C 1255.48 0.703093 3.05001 0
M  V30 12970 C 1255.96 1.25938 4.40345 0
M  V30 12971 N 1257.45 1.22015 4.46841 0
M  V30 12972 C 1258.18 1.62076 5.50017 0
M  V30 12973 N 1257.68 2.09736 6.6029 0
M  V30 12974 N 1259.47 1.53482 5.4074 0
M  V30 12975 H 1251.62 1.47487 1.52844 0
M  V30 12976 H 1253.89 0.611851 0.724115 0
M  V30 12977 H 1253.59 1.78573 3.02992 0
M  V30 12978 H 1253.47 0.198178 3.76679 0
M  V30 12979 H 1255.85 -0.336965 2.9317 0
M  V30 12980 H 1255.94 1.27892 2.21534 0
M  V30 12981 H 1255.58 2.29823 4.52928 0
M  V30 12982 H 1255.51 0.659481 5.22454 0
M  V30 12983 H 1258 0.870957 3.67726 0
M  V30 12984 H 1258.31 2.3837 7.35119 0
M  V30 12985 H 1256.66 2.13712 6.61326 0
M  V30 12986 H 1259.85 1.16065 4.53483 0
M  V30 12987 H 1260.02 1.85026 6.21023 0
M  V30 12988 N 1253.43 -1.55816 0.23648 0
M  V30 12989 C 1254.38 -2.22322 -0.68378 0
M  V30 12990 C 1255.37 -1.2074 -1.1882 0
M  V30 12991 O 1256.58 -1.38781 -1.14629 0
M  V30 12992 H 1252.95 -0.713021 -0.238966 0
M  V30 12993 H 1254.92 -2.98234 -0.0995879 0
M  V30 12994 C 1253.67 -2.92845 -1.87449 0
M  V30 12995 H 1252.99 -3.70777 -1.49548 0
M  V30 12996 H 1254.43 -3.42758 -2.49585 0
M  V30 12997 C 1252.89 -1.96139 -2.73918 0
M  V30 12998 O 1253.42 -1.48781 -3.73132 0
M  V30 12999 N 1251.63 -1.63465 -2.40266 0
M  V30 13000 H 1251.18 -2.02171 -1.59639 0
M  V30 13001 H 1251.13 -0.990239 -2.98398 0
M  V30 13002 N 1254.91 0.036755 -1.57557 0
M  V30 13003 C 1256.32 0.584324 -1.7732 0
M  V30 13004 C 1256.67 1.76025 -0.86658 0
M  V30 13005 O 1255.79 2.16318 -0.059443 0
M  V30 13006 C 1256.39 1.06679 -3.21566 0
M  V30 13007 C 1254.95 1.55994 -3.42553 0
M  V30 13008 C 1254.09 0.494604 -2.72853 0
M  V30 13009 H 1257.05 -0.189473 -1.57565 0
M  V30 13010 H 1257.07 1.93446 -3.27657 0
M  V30 13011 H 1256.58 0.210727 -3.87527 0
M  V30 13012 H 1254.68 2.43811 -2.81757 0
M  V30 13013 H 1254.79 1.61274 -4.5114 0
M  V30 13014 H 1253.16 0.947865 -2.36406 0
M  V30 13015 H 1253.94 -0.351868 -3.41492 0
M  V30 13016 N 1256.39 1.54543 0.308881 0
M  V30 13017 C 1257.33 1.84949 1.38067 0
M  V30 13018 C 1258.3 0.697746 1.50734 0
M  V30 13019 O 1259.49 0.94561 1.65719 0
M  V30 13020 C 1256.63 2.09544 2.74199 0
M  V30 13021 C 1255.74 3.37193 2.70046 0
M  V30 13022 C 1254.88 3.51672 3.98121 0
M  V30 13023 C 1253.91 4.73143 3.88333 0
M  V30 13024 N 1253.05 4.84469 5.08167 0
M  V30 13025 H 1257.89 2.76379 1.11438 0
M  V30 13026 H 1255.43 1.36863 0.539153 0
M  V30 13027 H 1257.39 2.21798 3.53358 0
M  V30 13028 H 1256.02 1.21389 2.99106 0
M  V30 13029 H 1255.07 3.33601 1.82796 0
M  V30 13030 H 1256.38 4.26468 2.58701 0
M  V30 13031 H 1255.53 3.63548 4.85714 0
M  V30 13032 H 1254.27 2.60516 4.1229 0
M  V30 13033 H 1253.28 4.61308 2.99124 0
M  V30 13034 H 1254.5 5.65698 3.75716 0
M  V30 13035 H 1252.45 3.96234 5.22814 0
M  V30 13036 H 1252.37 5.67733 4.99215 0
M  V30 13037 H 1253.63 5.00693 5.97434 0
M  V30 13038 N 1257.86 -0.571685 1.46866 0
M  V30 13039 C 1259.28 -0.896172 1.32064 0
M  V30 13040 C 1259.48 -1.9925 0.300291 0
M  V30 13041 O 1258.54 -2.50791 -0.293284 0
M  V30 13042 C 1259.85 -1.3031 2.70998 0
M  V30 13043 C 1261.4 -1.41533 2.79173 0
M  V30 13044 C 1261.87 -1.85587 4.18714 0
M  V30 13045 N 1263.36 -1.92762 4.21185 0
M  V30 13046 C 1264.1 -2.28148 5.26057 0
M  V30 13047 N 1263.59 -2.62248 6.41247 0
M  V30 13048 N 1265.39 -2.28797 5.13428 0
M  V30 13049 H 1257.54 0.152349 2.11853 0
M  V30 13050 H 1259.8 0.00548777 0.947984 0
M  V30 13051 H 1259.51 -0.571469 3.47026 0
M  V30 13052 H 1259.38 -2.26233 3.01826 0
M  V30 13053 H 1261.77 -2.1378 2.03426 0
M  V30 13054 H 1261.85 -0.438342 2.52016 0
M  V30 13055 H 1261.49 -1.13915 4.9496 0
M  V30 13056 H 1261.42 -2.84264 4.43285 0
M  V30 13057 H 1263.91 -1.68854 3.38078 0
M  V30 13058 H 1264.23 -2.88234 7.17036 0
M  V30 13059 H 1262.57 -2.59861 6.44591 0
M  V30 13060 H 1265.76 -2.01587 4.22469 0
M  V30 13061 H 1265.94 -2.56045 5.95269 0
M  V30 13062 N 1259.34 -1.34755 -0.817236 0
M  V30 13063 C 1260.62 -1.18007 -1.55993 0
M  V30 13064 C 1261 0.245079 -2.09673 0
M  V30 13065 O 1260.35 1.24718 -1.91462 0
M  V30 13066 C 1260.56 -2.23934 -2.67684 0
M  V30 13067 C 1261.9 -2.59201 -3.36303 0
M  V30 13068 O 1262.93 -2.22767 -2.77945 0
M  V30 13069 O 1261.79 -3.21809 -4.41702 0
M  V30 13070 H 1258.88 -0.4578 -0.688729 0
M  V30 13071 H 1261.43 -1.46405 -0.858117 0
M  V30 13072 H 1260.2 -3.19568 -2.25813 0
M  V30 13073 H 1259.82 -1.96745 -3.4551 0
M  V30 13074 N 1260.82 1.03812 -1.18578 0
M  V30 13075 C 1262.24 1.29271 -0.936011 0
M  V30 13076 C 1262.44 1.97551 0.396965 0
M  V30 13077 O 1261.49 2.25769 1.13069 0
M  V30 13078 C 1262.8 2.1489 -2.1034 0
M  V30 13079 C 1264.35 2.28228 -2.14198 0
M  V30 13080 C 1264.83 3.17214 -3.30362 0
M  V30 13081 N 1266.32 3.24802 -3.30239 0
M  V30 13082 C 1267.05 3.9382 -4.16765 0
M  V30 13083 N 1266.55 4.65147 -5.1343 0
M  V30 13084 N 1268.34 3.90125 -4.04671 0
M  V30 13085 H 1260.49 0.579011 -2.04356 0
M  V30 13086 H 1262.76 0.318021 -0.893066 0
M  V30 13087 H 1262.46 1.72029 -3.06755 0
M  V30 13088 H 1262.34 3.15576 -2.06619 0
M  V30 13089 H 1264.72 2.70324 -1.18359 0
M  V30 13090 H 1264.8 1.27124 -2.21976 0
M  V30 13091 H 1264.45 2.75829 -4.26475 0
M  V30 13092 H 1264.38 4.18356 -3.19821 0
M  V30 13093 H 1266.87 2.73994 -2.60261 0
M  V30 13094 H 1267.18 5.15414 -5.7582 0
M  V30 13095 H 1265.53 4.64043 -5.17387 0
M  V30 13096 H 1268.72 3.33536 -3.28438 0
M  V30 13097 H 1268.89 4.43641 -4.7232 0
M  V30 13098 N 1262.3 0.988223 1.22768 0
M  V30 13099 C 1263.23 0.554478 2.26821 0
M  V30 13100 C 1264.21 -0.416293 1.64927 0
M  V30 13101 O 1265.39 -0.30795 1.91743 0
M  V30 13102 C 1262.52 -0.136266 3.47033 0
M  V30 13103 C 1261.48 0.752575 4.21332 0
M  V30 13104 C 1260.8 -0.0708236 5.34653 0
M  V30 13105 C 1262.1 2.04717 4.80508 0
M  V30 13106 H 1263.8 1.42423 2.63355 0
M  V30 13107 H 1261.34 0.686267 1.26595 0
M  V30 13108 H 1263.3 -0.451068 4.18979 0
M  V30 13109 H 1262.02 -1.04053 3.09581 0
M  V30 13110 H 1260.68 1.05095 3.51213 0
M  V30 13111 H 1260.33 -0.975859 4.93443 0
M  V30 13112 H 1260.03 0.520835 5.85287 0
M  V30 13113 H 1261.55 -0.379828 6.09417 0
M  V30 13114 H 1262.97 1.79663 5.44421 0
M  V30 13115 H 1261.36 2.58726 5.41462 0
M  V30 13116 H 1262.43 2.72896 4.00819 0
M  V30 13117 N 1263.78 -1.38018 0.760839 0
M  V30 13118 C 1265.02 -2.00248 0.320716 0
M  V30 13119 C 1265.35 -1.60259 -1.09684 0
M  V30 13120 O 1264.63 -0.843567 -1.75255 0
M  V30 13121 C 1264.91 -3.57254 0.451849 0
M  V30 13122 C 1264.77 -4.07185 1.91103 0
M  V30 13123 C 1266.08 -4.39843 -0.150439 0
M  V30 13124 H 1263.2 -0.727491 0.118007 0
M  V30 13125 H 1265.85 -1.63855 0.961842 0
M  V30 13126 H 1264 -3.88386 -0.0939672 0
M  V30 13127 H 1265.67 -3.86665 2.51571 0
M  V30 13128 H 1263.91 -3.59782 2.42362 0
M  V30 13129 H 1264.58 -5.16262 1.9539 0
M  V30 13130 H 1267.06 -4.14905 0.315145 0
M  V30 13131 H 1265.93 -5.48893 -0.0284853 0
M  V30 13132 H 1266.19 -4.24367 -1.23956 0
M  V30 13133 N 1265.25 -0.510493 -1.49103 0
M  V30 13134 C 1266.2 0.276449 -2.30951 0
M  V30 13135 C 1267.2 0.953893 -1.3999 0
M  V30 13136 O 1268.4 0.880499 -1.56994 0
M  V30 13137 H 1264.78 0.108013 -0.744202 0
M  V30 13138 H 1266.75 -0.433725 -2.95231 0
M  V30 13139 C 1265.5 1.32234 -3.21573 0
M  V30 13140 H 1264.82 0.810468 -3.91499 0
M  V30 13141 H 1266.26 1.84476 -3.81765 0
M  V30 13142 C 1264.72 2.3456 -2.41833 0
M  V30 13143 O 1265.25 3.40627 -2.12922 0
M  V30 13144 N 1263.45 2.07272 -2.03682 0
M  V30 13145 H 1263 1.21036 -2.27394 0
M  V30 13146 H 1262.96 2.75963 -1.50638 0
M  V30 13147 N 1266.73 1.55688 -0.24474 0
M  V30 13148 C 1267.64 2.24933 0.666519 0
M  V30 13149 C 1268.66 1.26471 1.19503 0
M  V30 13150 O 1269.83 1.59342 1.23176 0
M  V30 13151 C 1266.9 2.9336 1.84772 0
M  V30 13152 C 1265.96 4.07225 1.35889 0
M  V30 13153 C 1265.19 4.72381 2.48379 0
M  V30 13154 O 1265.42 4.36605 3.67059 0
M  V30 13155 O 1264.35 5.60933 2.18261 0
M  V30 13156 H 1268.18 3.03513 0.106507 0
M  V30 13157 H 1265.76 1.49394 -0.0133309 0
M  V30 13158 H 1267.64 3.36468 2.53708 0
M  V30 13159 H 1266.32 2.17721 2.39539 0
M  V30 13160 H 1265.22 3.68639 0.636881 0
M  V30 13161 H 1266.56 4.84676 0.857333 0
M  V30 13162 N 1268.21 -0.0283989 1.57574 0
M  V30 13163 C 1269.62 -0.574912 1.77628 0
M  V30 13164 C 1269.97 -1.75563 0.875903 0
M  V30 13165 O 1269.1 -2.16284 0.0709141 0
M  V30 13166 C 1269.69 -1.04972 3.22128 0
M  V30 13167 C 1268.25 -1.54175 3.43376 0
M  V30 13168 C 1267.4 -0.480127 2.73112 0
M  V30 13169 H 1270.35 0.197826 1.57462 0
M  V30 13170 H 1270.37 -1.91705 3.28678 0
M  V30 13171 H 1269.88 -0.190173 3.87634 0
M  V30 13172 H 1267.98 -2.42313 2.83046 0
M  V30 13173 H 1268.1 -1.58879 4.51989 0
M  V30 13174 H 1266.46 -0.935314 2.36905 0
M  V30 13175 H 1267.24 0.369973 3.41301 0
M  V30 13176 N 1269.69 -1.54705 -0.300681 0
M  V30 13177 C 1270.62 -1.88679 -1.37559 0
M  V30 13178 C 1271.6 -0.74574 -1.52881 0
M  V30 13179 O 1272.78 -1.0015 -1.66384 0
M  V30 13180 C 1269.91 -2.13438 -2.73974 0
M  V30 13181 C 1268.87 -3.29284 -2.73415 0
M  V30 13182 C 1268.19 -3.39462 -4.13122 0
M  V30 13183 C 1269.49 -4.66382 -2.35128 0
M  V30 13184 H 1271.19 -2.78707 -1.09373 0
M  V30 13185 H 1268.73 -1.341 -0.524704 0
M  V30 13186 H 1270.69 -2.35791 -3.49257 0
M  V30 13187 H 1269.41 -1.20181 -3.03684 0
M  V30 13188 H 1268.07 -3.06855 -2.00588 0
M  V30 13189 H 1267.72 -2.43721 -4.4001 0
M  V30 13190 H 1267.42 -4.17334 -4.1365 0
M  V30 13191 H 1268.94 -3.64075 -4.90185 0
M  V30 13192 H 1270.36 -4.88463 -3.00128 0
M  V30 13193 H 1268.75 -5.4697 -2.46867 0
M  V30 13194 H 1269.82 -4.67078 -1.30256 0
M  V30 13195 N 1271.17 0.563888 -1.47167 0
M  V30 13196 C 1272.13 1.65359 -1.58711 0
M  V30 13197 C 1273.13 1.53999 -0.46272 0
M  V30 13198 O 1274.32 1.58277 -0.727595 0
M  V30 13199 C 1271.45 3.04874 -1.52529 0
M  V30 13200 H 1272.64 1.56475 -2.55843 0
M  V30 13201 H 1270.2 0.783271 -1.35257 0
M  V30 13202 H 1270.93 3.19297 -0.56747 0
M  V30 13203 H 1270.72 3.14528 -2.34125 0
M  V30 13204 H 1272.21 3.84164 -1.63731 0
M  V30 13205 N 1272.64 1.35187 0.810078 0
M  V30 13206 C 1273.61 1.27698 1.90331 0
M  V30 13207 C 1274.61 0.189216 1.59683 0
M  V30 13208 O 1275.8 0.442689 1.68481 0
M  V30 13209 C 1272.93 0.974631 3.26671 0
M  V30 13210 H 1274.12 2.24902 1.98392 0
M  V30 13211 H 1271.68 1.1966 1.00554 0
M  V30 13212 H 1272.41 0.0063068 3.24299 0
M  V30 13213 H 1272.2 1.76158 3.50301 0
M  V30 13214 H 1273.69 0.947743 4.06703 0
M  V30 13215 N 1274.12 -1.03182 1.19127 0
M  V30 13216 C 1275.35 -1.79904 1.01578 0
M  V30 13217 C 1275.76 -1.84044 -0.438697 0
M  V30 13218 O 1275.1 -1.28117 -1.3165 0
M  V30 13219 C 1275.17 -3.26473 1.50519 0
M  V30 13220 C 1274.83 -3.45975 2.98581 0
M  V30 13221 C 1275.83 -3.36436 3.96367 0
M  V30 13222 C 1273.51 -3.72284 3.37209 0
M  V30 13223 C 1275.51 -3.52925 5.30775 0
M  V30 13224 C 1273.19 -3.8842 4.71777 0
M  V30 13225 C 1274.19 -3.78742 5.68369 0
M  V30 13226 O 1273.88 -3.94405 7.005 0
M  V30 13227 H 1273.61 -0.573103 0.35851 0
M  V30 13228 H 1276.16 -1.30871 1.5831 0
M  V30 13229 H 1274.39 -3.76517 0.881593 0
M  V30 13230 H 1276.08 -3.84781 1.29223 0
M  V30 13231 H 1276.85 -3.16064 3.6787 0
M  V30 13232 H 1272.73 -3.78911 2.62579 0
M  V30 13233 H 1276.27 -3.45288 6.06153 0
M  V30 13234 H 1272.17 -4.08288 4.99971 0
M  V30 13235 H 1272.94 -4.11514 7.0753 0
M  V30 13236 N 1275.6 -0.99472 -1.22242 0
M  V30 13237 C 1276.83 -0.689809 -1.95592 0
M  V30 13238 C 1277.25 0.739321 -1.72961 0
M  V30 13239 O 1276.61 1.50563 -1.00997 0
M  V30 13240 C 1276.66 -1.00367 -3.46351 0
M  V30 13241 O 1275.76 -0.103326 -4.12271 0
M  V30 13242 H 1275.1 -0.257997 -0.611828 0
M  V30 13243 H 1277.63 -1.33219 -1.55286 0
M  V30 13244 H 1277.64 -0.946259 -3.96875 0
M  V30 13245 H 1276.32 -2.04504 -3.62148 0
M  V30 13246 H 1274.89 -0.216374 -3.72272 0
M  V30 13247 N 1277.08 1.37613 -0.768148 0
M  V30 13248 C 1278.31 2.03756 -0.341615 0
M  V30 13249 C 1278.72 1.58063 1.03984 0
M  V30 13250 O 1278.06 0.755609 1.6744 0
M  V30 13251 C 1278.12 3.58229 -0.302032 0
M  V30 13252 C 1277.79 4.27039 -1.62747 0
M  V30 13253 C 1278.78 4.51408 -2.57928 0
M  V30 13254 C 1276.47 4.64941 -1.90092 0
M  V30 13255 C 1278.46 5.12731 -3.78663 0
M  V30 13256 C 1276.15 5.25986 -3.11098 0
M  V30 13257 C 1277.15 5.49818 -4.05203 0
M  V30 13258 O 1276.83 6.09588 -5.24078 0
M  V30 13259 H 1276.57 0.660992 -0.141655 0
M  V30 13260 H 1279.12 1.77001 -1.04211 0
M  V30 13261 H 1277.35 3.84016 0.454811 0
M  V30 13262 H 1279.04 4.05784 0.0969452 0
M  V30 13263 H 1279.81 4.22542 -2.38083 0
M  V30 13264 H 1275.68 4.45729 -1.17674 0
M  V30 13265 H 1279.23 5.31249 -4.52129 0
M  V30 13266 H 1275.13 5.54276 -3.3083 0
M  V30 13267 H 1275.89 6.28068 -5.24855 0
M  V30 13268 N 1278.56 0.518393 1.4883 0
M  V30 13269 C 1279.8 -0.0199053 2.0249 0
M  V30 13270 C 1280.13 -1.35375 1.39657 0
M  V30 13271 O 1279.39 -1.88454 0.527586 0
M  V30 13272 C 1279.69 -0.203001 3.56823 0
M  V30 13273 C 1279.35 1.05502 4.38384 0
M  V30 13274 C 1278.01 1.39982 4.60389 0
M  V30 13275 C 1280.37 1.89042 4.85708 0
M  V30 13276 C 1277.69 2.57922 5.26966 0
M  V30 13277 C 1280.05 3.06151 5.53583 0
M  V30 13278 C 1278.71 3.40991 5.73831 0
M  V30 13279 H 1277.98 -0.00728388 0.740964 0
M  V30 13280 H 1280.63 0.682073 1.78941 0
M  V30 13281 H 1278.93 -0.987653 3.79147 0
M  V30 13282 H 1280.63 -0.634234 3.95953 0
M  V30 13283 H 1277.22 0.77647 4.21508 0
M  V30 13284 H 1281.4 1.63716 4.6852 0
M  V30 13285 H 1276.66 2.85132 5.40842 0
M  V30 13286 H 1280.83 3.71198 5.89224 0
M  V30 13287 H 1278.46 4.32479 6.25193 0
M  V30 13288 N 1280.03 -1.55556 0.252993 0
M  V30 13289 C 1280.97 -2.18978 -0.676837 0
M  V30 13290 C 1281.98 -1.16788 -1.13421 0
M  V30 13291 O 1283.17 -1.43623 -1.05993 0
M  V30 13292 C 1280.27 -2.78404 -1.93248 0
M  V30 13293 C 1279.44 -4.06072 -1.62555 0
M  V30 13294 C 1278.5 -4.49757 -2.7314 0
M  V30 13295 O 1277.53 -5.16005 -2.40266 0
M  V30 13296 N 1278.73 -4.18049 -4.0276 0
M  V30 13297 H 1281.49 -2.994 -0.134142 0
M  V30 13298 H 1279.05 -1.61734 0.0731965 0
M  V30 13299 H 1281.05 -3.04583 -2.6648 0
M  V30 13300 H 1279.62 -2.02104 -2.3848 0
M  V30 13301 H 1278.84 -3.87417 -0.728115 0
M  V30 13302 H 1280.12 -4.89297 -1.39521 0
M  V30 13303 H 1279.52 -3.64876 -4.32298 0
M  V30 13304 H 1278.08 -4.4905 -4.72438 0
M  V30 13305 N 1281.51 0.0200419 -1.57587 0
M  V30 13306 C 1282.76 0.708115 -1.88861 0
M  V30 13307 C 1283.07 1.76036 -0.852693 0
M  V30 13308 O 1284.28 2.50165 -1.05497 0
M  V30 13309 C 1282.74 1.31057 -3.3519 0
M  V30 13310 C 1282.34 0.294202 -4.47033 0
M  V30 13311 C 1284.09 1.97799 -3.756 0
M  V30 13312 C 1282 0.905508 -5.84427 0
M  V30 13313 H 1280.93 0.268236 -0.704674 0
M  V30 13314 H 1283.58 -0.0372162 -1.83462 0
M  V30 13315 H 1281.96 2.1059 -3.35362 0
M  V30 13316 H 1283.13 -0.475081 -4.58344 0
M  V30 13317 H 1281.45 -0.271644 -4.15513 0
M  V30 13318 H 1284.04 2.44404 -4.75574 0
M  V30 13319 H 1284.39 2.80004 -3.08064 0
M  V30 13320 H 1284.92 1.25028 -3.77641 0
M  V30 13321 H 1281.66 0.122685 -6.55385 0
M  V30 13322 H 1281.18 1.64442 -5.76818 0
M  V30 13323 H 1282.86 1.41016 -6.31446 0
M  V30 13324 N 1282.99 1.54862 0.292472 0
M  V30 13325 C 1284.24 1.74203 1.02458 0
M  V30 13326 C 1284.56 0.535398 1.87506 0
M  V30 13327 O 1283.83 -0.450164 1.90658 0
M  V30 13328 H 1282.41 0.642369 0.381276 0
M  V30 13329 H 1285.07 1.92232 0.321398 0
M  V30 13330 H 1284.17 2.63486 1.67277 0
M  V30 13331 N 1284.47 -0.556076 1.47464 0
M  V30 13332 C 1285.43 -1.64515 1.59586 0
M  V30 13333 C 1286.43 -1.53751 0.470881 0
M  V30 13334 O 1287.62 -1.57889 0.735979 0
M  V30 13335 C 1284.75 -3.0406 1.54143 0
M  V30 13336 H 1285.95 -1.55116 2.56669 0
M  V30 13337 H 1283.5 -0.776087 1.35671 0
M  V30 13338 H 1284.23 -3.18991 0.584395 0
M  V30 13339 H 1284.02 -3.13282 2.3579 0
M  V30 13340 H 1285.51 -3.8329 1.65766 0
M  V30 13341 N 1285.95 -1.35615 -0.802897 0
M  V30 13342 C 1287.2 -1.28428 -1.55528 0
M  V30 13343 C 1287.51 0.138275 -1.95111 0
M  V30 13344 O 1288.72 0.332435 -2.69457 0
M  V30 13345 C 1287.17 -2.25251 -2.80696 0
M  V30 13346 C 1286.78 -3.72871 -2.48336 0
M  V30 13347 C 1288.52 -2.27014 -3.58699 0
M  V30 13348 C 1286.43 -4.61507 -3.69817 0
M  V30 13349 H 1285.36 -0.47718 -0.583794 0
M  V30 13350 H 1288.01 -1.609 -0.882238 0
M  V30 13351 H 1286.39 -1.85755 -3.4973 0
M  V30 13352 H 1287.57 -4.21024 -1.87285 0
M  V30 13353 H 1285.88 -3.73752 -1.83571 0
M  V30 13354 H 1288.48 -2.90451 -4.48935 0
M  V30 13355 H 1288.82 -1.27491 -3.96298 0
M  V30 13356 H 1289.36 -2.65058 -2.9663 0
M  V30 13357 H 1286.09 -5.62043 -3.37324 0
M  V30 13358 H 1285.61 -4.18079 -4.30081 0
M  V30 13359 H 1287.29 -4.77113 -4.37004 0
M  V30 13360 N 1287.43 1.02549 -1.19673 0
M  V30 13361 C 1288.36 2.10991 -0.8953 0
M  V30 13362 C 1289.37 1.62405 0.113373 0
M  V30 13363 O 1290.56 1.7812 -0.116485 0
M  V30 13364 C 1287.66 3.37394 -0.319124 0
M  V30 13365 C 1286.83 4.15154 -1.37718 0
M  V30 13366 C 1285.89 5.19867 -0.81393 0
M  V30 13367 O 1284.92 5.49285 -1.49246 0
M  V30 13368 N 1286.12 5.79248 0.381089 0
M  V30 13369 H 1288.88 2.37438 -1.82875 0
M  V30 13370 H 1286.45 1.18867 -1.09919 0
M  V30 13371 H 1288.44 4.04637 0.0716106 0
M  V30 13372 H 1287.01 3.08267 0.518681 0
M  V30 13373 H 1286.23 3.4301 -1.94262 0
M  V30 13374 H 1287.52 4.63892 -2.09003 0
M  V30 13375 H 1286.91 5.5767 0.949791 0
M  V30 13376 H 1285.47 6.47882 0.713563 0
M  V30 13377 N 1288.9 1.00119 1.21713 0
M  V30 13378 C 1290.13 0.700172 1.95224 0
M  V30 13379 C 1290.55 -0.730138 1.73351 0
M  V30 13380 O 1289.91 -1.50026 1.01794 0
M  V30 13381 C 1289.96 1.02202 3.45814 0
M  V30 13382 O 1289.06 0.125188 4.1221 0
M  V30 13383 H 1288.4 0.261238 0.610451 0
M  V30 13384 H 1290.93 1.34041 1.54578 0
M  V30 13385 H 1290.94 0.967293 3.96368 0
M  V30 13386 H 1289.62 2.06422 3.61058 0
M  V30 13387 H 1288.2 0.236114 3.72152 0
M  V30 13388 N 1290.38 -1.37203 0.775435 0
M  V30 13389 C 1291.63 -1.99601 0.341431 0
M  V30 13390 C 1291.96 -1.61555 -1.08306 0
M  V30 13391 O 1291.21 -0.855126 -1.76029 0
M  V30 13392 C 1291.51 -3.54725 0.436426 0
M  V30 13393 C 1291.18 -4.1255 1.8197 0
M  V30 13394 C 1289.84 -4.28056 2.19822 0
M  V30 13395 C 1292.19 -4.44222 2.7261 0
M  V30 13396 C 1289.52 -4.72538 3.47742 0
M  V30 13397 C 1291.87 -4.90131 3.99943 0
M  V30 13398 C 1290.53 -5.03842 4.37835 0
M  V30 13399 H 1289.8 -0.730391 0.124938 0
M  V30 13400 H 1292.45 -1.63914 0.990177 0
M  V30 13401 H 1290.76 -3.90681 -0.295852 0
M  V30 13402 H 1292.45 -4.00916 0.0818664 0
M  V30 13403 H 1289.04 -4.00911 1.51553 0
M  V30 13404 H 1293.23 -4.31824 2.44625 0
M  V30 13405 H 1288.48 -4.81341 3.76989 0
M  V30 13406 H 1292.66 -5.13604 4.70302 0
M  V30 13407 H 1290.28 -5.3807 5.37015 0
M  V30 13408 N 1291.86 -0.526279 -1.48553 0
M  V30 13409 C 1292.82 0.227739 -2.28066 0
M  V30 13410 C 1293.82 0.871146 -1.35158 0
M  V30 13411 O 1295.01 0.731769 -1.58085 0
M  V30 13412 C 1292.14 1.32918 -3.1392 0
M  V30 13413 H 1293.34 -0.470313 -2.96189 0
M  V30 13414 H 1290.89 -0.282089 -1.53733 0
M  V30 13415 H 1291.63 2.0606 -2.50419 0
M  V30 13416 H 1291.41 0.872991 -3.82258 0
M  V30 13417 H 1292.9 1.85964 -3.73908 0
M  V30 13418 N 1293.34 1.5542 -0.261239 0
M  V30 13419 C 1294.59 1.9889 0.358777 0
M  V30 13420 C 1294.91 1.15092 1.57413 0
M  V30 13421 O 1294.18 0.237095 1.9446 0
M  V30 13422 H 1292.76 0.734599 0.13555 0
M  V30 13423 H 1295.42 1.91483 -0.363357 0
M  V30 13424 H 1294.51 3.05082 0.658142 0
M  V30 13425 N 1294.82 -0.0116844 1.57596 0
M  V30 13426 C 1296.06 -0.698958 1.90055 0
M  V30 13427 C 1296.39 -1.74422 0.860659 0
M  V30 13428 O 1295.65 -1.95226 -0.136132 0
M  V30 13429 C 1295.94 -1.38985 3.29269 0
M  V30 13430 C 1295.61 -0.478916 4.48349 0
M  V30 13431 C 1294.27 -0.228071 4.80659 0
M  V30 13432 C 1296.62 0.14897 5.20987 0
M  V30 13433 C 1293.95 0.659147 5.82986 0
M  V30 13434 C 1296.3 1.02399 6.24257 0
M  V30 13435 C 1294.97 1.28413 6.55032 0
M  V30 13436 H 1294.24 -0.255767 0.69546 0
M  V30 13437 H 1296.89 0.0413339 1.91455 0
M  V30 13438 H 1295.19 -2.2039 3.23937 0
M  V30 13439 H 1296.89 -1.92747 3.51638 0
M  V30 13440 H 1293.48 -0.68459 4.23097 0
M  V30 13441 H 1297.66 -0.0318326 4.9629 0
M  V30 13442 H 1292.92 0.86882 6.05195 0
M  V30 13443 H 1297.09 1.51694 6.79678 0
M  V30 13444 H 1294.72 1.97332 7.34142 0
M  V30 13445 N 1296.29 -1.55015 -0.284256 0
M  V30 13446 C 1297.52 -1.79102 -1.03586 0
M  V30 13447 C 1297.94 -0.558733 -1.80343 0
M  V30 13448 O 1297.29 0.471925 -1.76293 0
M  V30 13449 C 1297.34 -3.00915 -2.0033 0
M  V30 13450 O 1297.07 -4.19384 -1.26685 0
M  V30 13451 C 1298.57 -3.3752 -2.87394 0
M  V30 13452 H 1295.79 -0.596912 -0.306491 0
M  V30 13453 H 1298.33 -2.02005 -0.31845 0
M  V30 13454 H 1296.49 -2.80171 -2.67549 0
M  V30 13455 H 1296.9 -4.88175 -1.91796 0
M  V30 13456 H 1298.37 -4.25953 -3.51095 0
M  V30 13457 H 1298.85 -2.56418 -3.56576 0
M  V30 13458 H 1299.46 -3.60483 -2.25682 0
M  V30 13459 N 1297.77 0.548248 -1.47757 0
M  V30 13460 C 1299.05 1.3092 -1.45325 0
M  V30 13461 C 1299.43 2.1053 -0.155008 0
M  V30 13462 O 1298.78 2.11558 0.863455 0
M  V30 13463 C 1298.99 2.20614 -2.70426 0
M  V30 13464 C 1300.33 2.81345 -3.18009 0
M  V30 13465 O 1301.36 2.30911 -2.71216 0
M  V30 13466 O 1300.22 3.73036 -3.99383 0
M  V30 13467 H 1297.31 0.58996 -0.579548 0
M  V30 13468 H 1299.86 0.56641 -1.59968 0
M  V30 13469 H 1298.63 1.61449 -3.56441 0
M  V30 13470 H 1298.25 3.02173 -2.58413 0
M  V30 13471 N 1299.25 1.36039 0.795694 0
M  V30 13472 C 1300.48 1.32866 1.58209 0
M  V30 13473 C 1300.89 -0.0935189 1.88969 0
M  V30 13474 O 1300.23 -1.05905 1.501 0
M  V30 13475 C 1300.29 2.07872 2.93308 0
M  V30 13476 C 1299.96 3.56999 2.85309 0
M  V30 13477 C 1300.95 4.51374 2.57987 0
M  V30 13478 C 1298.64 3.99798 3.04083 0
M  V30 13479 C 1300.63 5.86526 2.49533 0
M  V30 13480 C 1298.32 5.35042 2.95251 0
M  V30 13481 C 1299.32 6.28218 2.68013 0
M  V30 13482 O 1299.01 7.60979 2.59163 0
M  V30 13483 H 1298.74 0.457589 0.497583 0
M  V30 13484 H 1301.29 1.79637 0.995978 0
M  V30 13485 H 1299.52 1.55755 3.53945 0
M  V30 13486 H 1301.21 1.97638 3.54534 0
M  V30 13487 H 1301.98 4.19623 2.43191 0
M  V30 13488 H 1297.86 3.27652 3.24292 0
M  V30 13489 H 1301.4 6.59222 2.28193 0
M  V30 13490 H 1297.3 5.66404 3.09608 0
M  V30 13491 H 1298.06 7.7103 2.74691 0
M  V30 13492 N 1300.73 -1.01913 1.20215 0
M  V30 13493 C 1301.98 -1.7547 1.01076 0
M  V30 13494 C 1302.3 -1.89045 -0.457404 0
M  V30 13495 O 1301.56 -1.41121 -1.35585 0
M  V30 13496 C 1301.86 -3.17734 1.63646 0
M  V30 13497 C 1301.52 -3.24143 3.13436 0
M  V30 13498 C 1300.19 -3.25599 3.54315 0
M  V30 13499 C 1302.54 -3.22508 4.09436 0
M  V30 13500 C 1299.87 -3.23089 4.89725 0
M  V30 13501 C 1302.22 -3.21539 5.44789 0
M  V30 13502 C 1300.88 -3.21298 5.85085 0
M  V30 13503 H 1300.15 -0.642092 0.369864 0
M  V30 13504 H 1302.8 -1.19547 1.49602 0
M  V30 13505 H 1301.1 -3.76799 1.07375 0
M  V30 13506 H 1302.8 -3.73338 1.46356 0
M  V30 13507 H 1299.39 -3.23743 2.80871 0
M  V30 13508 H 1303.57 -3.20555 3.7889 0
M  V30 13509 H 1298.83 -3.21231 5.20212 0
M  V30 13510 H 1303 -3.19226 6.18924 0
M  V30 13511 H 1300.63 -3.19107 6.89982 0
M  V30 13512 N 1302.21 -1.00763 -1.2118 0
M  V30 13513 C 1303.43 -0.710746 -1.94309 0
M  V30 13514 C 1303.85 0.727103 -1.74237 0
M  V30 13515 O 1303.21 1.49223 -1.05065 0
M  V30 13516 C 1303.26 -1.02562 -3.46646 0
M  V30 13517 O 1302.98 -2.40699 -3.66054 0
M  V30 13518 C 1304.48 -0.748517 -4.36935 0
M  V30 13519 H 1301.7 -0.26171 -0.617858 0
M  V30 13520 H 1304.24 -1.34639 -1.53924 0
M  V30 13521 H 1302.4 -0.435537 -3.84944 0
M  V30 13522 H 1302.81 -2.51764 -4.60125 0
M  V30 13523 H 1304.29 -1.01899 -5.42513 0
M  V30 13524 H 1304.76 0.317423 -4.38051 0
M  V30 13525 H 1305.37 -1.32033 -4.04286 0
M  V30 13526 N 1303.68 1.3679 -0.7827 0
M  V30 13527 C 1304.65 2.28472 -0.182525 0
M  V30 13528 C 1305.65 1.48524 0.616217 0
M  V30 13529 O 1306.84 1.68599 0.438197 0
M  V30 13530 C 1303.97 3.32588 0.748202 0
M  V30 13531 H 1305.16 2.83059 -0.99085 0
M  V30 13532 H 1302.72 1.46241 -0.551658 0
M  V30 13533 H 1303.45 2.83145 1.58112 0
M  V30 13534 H 1303.24 3.91698 0.177481 0
M  V30 13535 H 1304.73 4.01073 1.16321 0
M  V30 13536 N 1305.16 0.53415 1.48272 0
M  V30 13537 C 1306.1 -0.273689 2.26553 0
M  V30 13538 C 1307.07 -0.941085 1.32598 0
M  V30 13539 O 1308.26 -0.964653 1.61947 0
M  V30 13540 C 1305.38 -1.38796 3.08955 0
M  V30 13541 C 1304.43 -0.831533 4.18315 0
M  V30 13542 S 1305.26 0.303875 5.34637 0
M  V30 13543 C 1306.42 -0.812767 6.206 0
M  V30 13544 H 1306.65 0.390639 2.94722 0
M  V30 13545 H 1304.19 0.320014 1.51047 0
M  V30 13546 H 1306.14 -2.02622 3.57008 0
M  V30 13547 H 1304.8 -2.02402 2.40192 0
M  V30 13548 H 1304 -1.66758 4.75613 0
M  V30 13549 H 1303.6 -0.269881 3.73025 0
M  V30 13550 H 1305.89 -1.71043 6.55554 0
M  V30 13551 H 1306.83 -0.27767 7.07555 0
M  V30 13552 H 1307.24 -1.09505 5.53777 0
M  V30 13553 N 1306.64 -1.55279 0.269478 0
M  V30 13554 C 1307.6 -2.21008 -0.607299 0
M  V30 13555 C 1308.6 -1.18619 -1.08564 0
M  V30 13556 O 1309.79 -1.4356 -0.986721 0
M  V30 13557 C 1306.93 -2.87157 -1.83721 0
M  V30 13558 H 1308.12 -2.99881 -0.0334894 0
M  V30 13559 H 1305.67 -1.56287 0.0200573 0
M  V30 13560 H 1306.41 -2.12281 -2.45168 0
M  V30 13561 H 1306.19 -3.62183 -1.5022 0
M  V30 13562 H 1307.68 -3.37391 -2.46083 0
M  V30 13563 N 1308.12 0.00332656 -1.576 0
M  V30 13564 C 1309.05 1.02391 -2.05058 0
M  V30 13565 C 1310.06 1.30903 -0.967901 0
M  V30 13566 O 1311.25 1.27937 -1.24476 0
M  V30 13567 C 1308.35 2.35947 -2.43274 0
M  V30 13568 C 1307.53 2.26423 -3.74234 0
M  V30 13569 C 1306.58 3.4264 -3.99355 0
M  V30 13570 O 1305.61 3.20977 -4.70067 0
M  V30 13571 N 1306.81 4.65379 -3.46991 0
M  V30 13572 H 1309.58 0.619216 -2.93233 0
M  V30 13573 H 1307.14 0.190777 -1.60772 0
M  V30 13574 H 1309.13 3.12462 -2.57196 0
M  V30 13575 H 1307.7 2.6817 -1.60635 0
M  V30 13576 H 1306.92 1.34841 -3.70421 0
M  V30 13577 H 1308.21 2.17229 -4.60097 0
M  V30 13578 H 1307.61 4.85878 -2.89723 0
M  V30 13579 H 1306.16 5.39171 -3.66249 0
M  V30 13580 N 1309.6 1.55164 0.276031 0
M  V30 13581 C 1310.51 1.90928 1.36321 0
M  V30 13582 C 1311.52 0.806183 1.54197 0
M  V30 13583 O 1312.7 1.10497 1.68382 0
M  V30 13584 C 1309.76 2.17123 2.70293 0
M  V30 13585 C 1308.82 3.40703 2.6119 0
M  V30 13586 C 1308.06 3.65638 3.88773 0
M  V30 13587 O 1308.28 2.93137 4.89313 0
M  V30 13588 O 1307.21 4.59172 3.89159 0
M  V30 13589 H 1311.04 2.8347 1.08988 0
M  V30 13590 H 1308.63 1.41672 0.474292 0
M  V30 13591 H 1310.51 2.3541 3.49514 0
M  V30 13592 H 1309.18 1.27765 2.97419 0
M  V30 13593 H 1308.09 3.27754 1.80355 0
M  V30 13594 H 1309.42 4.30271 2.39014 0
M  V30 13595 N 1311.07 -0.540404 1.48045 0
M  V30 13596 C 1312.32 -1.29422 1.55224 0
M  V30 13597 C 1312.64 -1.93716 0.223365 0
M  V30 13598 O 1311.91 -1.808 -0.754204 0
M  V30 13599 H 1310.49 -0.480658 0.571819 0
M  V30 13600 H 1313.16 -0.629712 1.84447 0
M  V30 13601 H 1312.25 -2.07897 2.32777 0
M  V30 13602 N 1312.55 -1.36459 -0.788468 0
M  V30 13603 C 1313.8 -1.31942 -1.54799 0
M  V30 13604 C 1314.15 0.100282 -1.92138 0
M  V30 13605 O 1313.45 1.05505 -1.59935 0
M  V30 13606 C 1313.64 -2.17672 -2.83467 0
M  V30 13607 C 1313.47 -3.67836 -2.58702 0
M  V30 13608 C 1312.24 -4.37009 -2.53675 0
M  V30 13609 C 1314.44 -4.61081 -2.27835 0
M  V30 13610 N 1312.42 -5.72811 -2.20817 0
M  V30 13611 C 1313.79 -5.85137 -2.04973 0
M  V30 13612 C 1315.85 -4.49636 -2.13849 0
M  V30 13613 C 1314.55 -6.99034 -1.69541 0
M  V30 13614 C 1316.57 -5.63401 -1.79816 0
M  V30 13615 C 1315.94 -6.86497 -1.57803 0
M  V30 13616 H 1312.04 -0.538087 -0.567438 0
M  V30 13617 H 1314.62 -1.7152 -0.921358 0
M  V30 13618 H 1312.79 -1.80338 -3.43995 0
M  V30 13619 H 1314.52 -2.04539 -3.49208 0
M  V30 13620 H 1311.28 -3.89822 -2.68953 0
M  V30 13621 H 1311.7 -6.44535 -2.07132 0
M  V30 13622 H 1316.34 -3.55054 -2.29558 0
M  V30 13623 H 1314.06 -7.93567 -1.52571 0
M  V30 13624 H 1317.65 -5.56508 -1.69677 0
M  V30 13625 H 1316.53 -7.73036 -1.31855 0
M  V30 13626 N 1314.03 1.01274 -1.20754 0
M  V30 13627 C 1315.28 1.74932 -1.02005 0
M  V30 13628 C 1315.61 1.89285 0.447372 0
M  V30 13629 O 1314.86 1.41838 1.34835 0
M  V30 13630 C 1315.16 3.16862 -1.65329 0
M  V30 13631 C 1314.83 3.22476 -3.15151 0
M  V30 13632 C 1313.49 3.23715 -3.56036 0
M  V30 13633 C 1315.84 3.20332 -4.11141 0
M  V30 13634 C 1313.17 3.20487 -4.91431 0
M  V30 13635 C 1315.52 3.18646 -5.46487 0
M  V30 13636 C 1314.18 3.18191 -5.8678 0
M  V30 13637 H 1313.45 0.640121 -0.373264 0
M  V30 13638 H 1316.1 1.18751 -1.50234 0
M  V30 13639 H 1314.41 3.76225 -1.09372 0
M  V30 13640 H 1316.1 3.72556 -1.48333 0
M  V30 13641 H 1312.69 3.22249 -2.82584 0
M  V30 13642 H 1316.88 3.18541 -3.80585 0
M  V30 13643 H 1312.13 3.18468 -5.21908 0
M  V30 13644 H 1316.31 3.1594 -6.20609 0
M  V30 13645 H 1313.93 3.15443 -6.91664 0
M  V30 13646 N 1315.51 1.01404 1.20644 0
M  V30 13647 C 1316.92 0.73386 1.71672 0
M  V30 13648 C 1317.27 -0.747803 1.8139 0
M  V30 13649 O 1316.4 -1.58372 1.47469 0
M  V30 13650 C 1316.99 1.32549 3.11795 0
M  V30 13651 C 1315.55 1.09423 3.60144 0
M  V30 13652 C 1314.7 1.43275 2.37419 0
M  V30 13653 H 1317.65 1.18383 1.05694 0
M  V30 13654 H 1317.67 0.714749 3.73727 0
M  V30 13655 H 1317.18 2.40386 3.0469 0
M  V30 13656 H 1315.28 0.0334113 3.72585 0
M  V30 13657 H 1315.4 1.77248 4.45107 0
M  V30 13658 H 1313.76 0.851714 2.40037 0
M  V30 13659 H 1314.54 2.52163 2.32957 0
M  V30 13660 N 1316.99 -1.36373 0.789944 0
M  V30 13661 C 1317.92 -2.32616 0.202944 0
M  V30 13662 C 1318.9 -1.56674 -0.662364 0
M  V30 13663 O 1320.08 -1.84826 -0.596078 0
M  V30 13664 C 1317.21 -3.4092 -0.662646 0
M  V30 13665 C 1316.17 -4.27877 0.102811 0
M  V30 13666 C 1315.49 -5.27352 -0.883407 0
M  V30 13667 C 1316.79 -5.0606 1.29231 0
M  V30 13668 H 1318.49 -2.81958 1.00699 0
M  V30 13669 H 1316.03 -1.35562 0.48568 0
M  V30 13670 H 1317.99 -4.07239 -1.08324 0
M  V30 13671 H 1316.71 -2.90147 -1.4994 0
M  V30 13672 H 1315.37 -3.63114 0.504389 0
M  V30 13673 H 1315.02 -4.72853 -1.71521 0
M  V30 13674 H 1314.72 -5.86398 -0.375669 0
M  V30 13675 H 1316.24 -5.96545 -1.30256 0
M  V30 13676 H 1317.66 -5.65417 0.947446 0
M  V30 13677 H 1316.05 -5.74521 1.73338 0
M  V30 13678 H 1317.12 -4.37671 2.08739 0
M  V30 13679 N 1318.47 -0.542005 -1.47987 0
M  V30 13680 C 1319.4 0.202703 -2.32618 0
M  V30 13681 C 1320.38 0.923521 -1.42846 0
M  V30 13682 O 1321.56 0.906957 -1.7172 0
M  V30 13683 C 1318.69 1.24267 -3.24307 0
M  V30 13684 C 1317.65 0.639257 -4.23199 0
M  V30 13685 C 1316.97 1.78275 -5.04105 0
M  V30 13686 C 1318.27 -0.396982 -5.20789 0
M  V30 13687 H 1319.97 -0.503817 -2.95131 0
M  V30 13688 H 1317.51 -0.243736 -1.41922 0
M  V30 13689 H 1319.46 1.7717 -3.82347 0
M  V30 13690 H 1318.19 1.97893 -2.59819 0
M  V30 13691 H 1316.85 0.131655 -3.66364 0
M  V30 13692 H 1316.5 2.50768 -4.36032 0
M  V30 13693 H 1316.2 1.38487 -5.71047 0
M  V30 13694 H 1317.72 2.31533 -5.65 0
M  V30 13695 H 1319.13 0.0454057 -5.73282 0
M  V30 13696 H 1317.53 -0.712911 -5.9585 0
M  V30 13697 H 1318.6 -1.29843 -4.67193 0
M  V30 13698 N 1319.94 1.55134 -0.277709 0
M  V30 13699 C 1321.18 2.01561 0.339489 0
M  V30 13700 C 1321.55 1.16185 1.52856 0
M  V30 13701 O 1322.75 1.52204 2.21556 0
M  V30 13702 C 1321.02 3.50285 0.709567 0
M  V30 13703 S 1322.58 4.18697 1.31293 0
M  V30 13704 H 1319.4 0.703137 0.105452 0
M  V30 13705 H 1322 1.91361 -0.400148 0
M  V30 13706 H 1320.7 4.10069 -0.164675 0
M  V30 13707 H 1320.23 3.64475 1.4806 0
M  V30 13708 H 1322.25 4.22539 2.60145 0
M  V30 13709 N 1321.42 0.00503138 1.57599 0
M  V30 13710 C 1322.67 -0.679766 1.91068 0
M  V30 13711 C 1323 -1.73144 0.879486 0
M  V30 13712 O 1322.28 -1.94237 -0.101116 0
M  V30 13713 C 1322.56 -1.3183 3.35101 0
M  V30 13714 C 1322.41 -0.277833 4.48941 0
M  V30 13715 C 1323.73 -2.24308 3.78647 0
M  V30 13716 H 1320.85 -0.245646 0.694857 0
M  V30 13717 H 1323.49 0.057357 1.89913 0
M  V30 13718 H 1321.64 -1.94657 3.36216 0
M  V30 13719 H 1323.31 0.351136 4.59962 0
M  V30 13720 H 1321.56 0.399365 4.31958 0
M  V30 13721 H 1322.23 -0.763759 5.46691 0
M  V30 13722 H 1324.7 -1.71494 3.79116 0
M  V30 13723 H 1323.58 -2.6595 4.80169 0
M  V30 13724 H 1323.84 -3.12427 3.12797 0
M  V30 13725 N 1322.9 -1.55308 -0.267798 0
M  V30 13726 C 1324.15 -1.75811 -0.996734 0
M  V30 13727 C 1324.47 -0.565161 -1.8663 0
M  V30 13728 O 1323.74 0.419775 -1.9135 0
M  V30 13729 H 1322.32 -0.648353 -0.371008 0
M  V30 13730 H 1324.98 -1.92719 -0.290775 0
M  V30 13731 H 1324.08 -2.66113 -1.63064 0
M  V30 13732 N 1324.38 0.532545 -1.4833 0
M  V30 13733 C 1325.31 1.64662 -1.65555 0
M  V30 13734 C 1326.29 1.62447 -0.50447 0
M  V30 13735 O 1327.47 1.79684 -0.736712 0
M  V30 13736 C 1324.6 3.03256 -1.69272 0
M  V30 13737 C 1323.56 3.20329 -2.83854 0
M  V30 13738 C 1322.88 4.59958 -2.72659 0
M  V30 13739 C 1324.18 3.03345 -4.25181 0
M  V30 13740 H 1325.88 1.50502 -2.58823 0
M  V30 13741 H 1323.42 0.722612 -1.24556 0
M  V30 13742 H 1325.38 3.81064 -1.79911 0
M  V30 13743 H 1324.1 3.18433 -0.725805 0
M  V30 13744 H 1322.76 2.44937 -2.72766 0
M  V30 13745 H 1322.41 4.71967 -1.73942 0
M  V30 13746 H 1322.11 4.72327 -3.49544 0
M  V30 13747 H 1323.63 5.39869 -2.85262 0
M  V30 13748 H 1325.05 3.70948 -4.37116 0
M  V30 13749 H 1323.44 3.27208 -5.03045 0
M  V30 13750 H 1324.51 1.998 -4.41824 0
M  V30 13751 N 1325.86 1.36875 0.78122 0
M  V30 13752 C 1327.27 1.17467 1.08044 0
M  V30 13753 C 1327.47 0.00434799 2.015 0
M  V30 13754 O 1326.53 -0.658499 2.43762 0
M  V30 13755 C 1327.84 2.48917 1.68704 0
M  V30 13756 C 1329.39 2.55354 1.81007 0
M  V30 13757 C 1329.86 3.8691 2.45081 0
M  V30 13758 N 1331.35 3.88301 2.52541 0
M  V30 13759 C 1332.09 4.86837 3.02947 0
M  V30 13760 N 1331.59 5.95768 3.53598 0
M  V30 13761 N 1333.38 4.74249 3.01735 0
M  V30 13762 H 1325.53 2.11793 0.160503 0
M  V30 13763 H 1327.79 0.938507 0.133825 0
M  V30 13764 H 1327.5 3.34867 1.07503 0
M  V30 13765 H 1327.37 2.65319 2.68115 0
M  V30 13766 H 1329.76 1.69816 2.41343 0
M  V30 13767 H 1329.84 2.42843 0.803783 0
M  V30 13768 H 1329.48 4.72858 1.85386 0
M  V30 13769 H 1329.41 3.9672 3.46296 0
M  V30 13770 H 1331.91 3.09607 2.16684 0
M  V30 13771 H 1332.22 6.66918 3.90435 0
M  V30 13772 H 1330.56 5.99426 3.51728 0
M  V30 13773 H 1333.75 3.88275 2.61458 0
M  V30 13774 H 1333.93 5.512 3.40709 0
M  V30 13775 N 1327.33 -1.00632 1.21289 0
M  V30 13776 C 1328.3 -2.07543 0.972548 0
M  V30 13777 C 1329.3 -1.60703 -0.0559244 0
M  V30 13778 O 1330.49 -1.73255 0.181213 0
M  V30 13779 C 1327.62 -3.37696 0.466297 0
M  V30 13780 H 1328.81 -2.30298 1.92101 0
M  V30 13781 H 1326.36 -1.17588 1.02969 0
M  V30 13782 H 1327.1 -3.2062 -0.487148 0
M  V30 13783 H 1326.88 -3.73024 1.20813 0
M  V30 13784 H 1328.37 -4.16388 0.317962 0
M  V30 13785 N 1328.81 -1.02043 -1.20104 0
M  V30 13786 C 1329.74 -0.552093 -2.22451 0
M  V30 13787 C 1330.76 0.367547 -1.58597 0
M  V30 13788 O 1331.95 0.165285 -1.77733 0
M  V30 13789 C 1329.05 0.215833 -3.38212 0
M  V30 13790 C 1328.22 -0.70666 -4.31654 0
M  V30 13791 C 1327.28 0.0143628 -5.26198 0
M  V30 13792 O 1326.3 -0.609413 -5.65928 0
M  V30 13793 N 1327.51 1.28794 -5.66032 0
M  V30 13794 H 1330.27 -1.43229 -2.6326 0
M  V30 13795 H 1327.83 -0.89842 -1.34685 0
M  V30 13796 H 1329.82 0.707523 -3.98467 0
M  V30 13797 H 1328.39 0.997358 -2.96263 0
M  V30 13798 H 1327.61 -1.37859 -3.69308 0
M  V30 13799 H 1328.9 -1.33392 -4.91003 0
M  V30 13800 H 1328.3 1.8156 -5.35773 0
M  V30 13801 H 1326.86 1.72429 -6.28579 0
M  V30 13802 N 1330.29 1.35952 -0.797165 0
M  V30 13803 C 1331.54 1.99765 -0.382794 0
M  V30 13804 C 1331.89 1.62119 1.0361 0
M  V30 13805 O 1331.18 0.869648 1.70727 0
M  V30 13806 C 1331.38 3.53986 -0.492805 0
M  V30 13807 C 1331.21 4.06612 -1.92085 0
M  V30 13808 C 1329.98 4.36403 -2.54716 0
M  V30 13809 C 1332.18 4.25823 -2.88409 0
M  V30 13810 N 1330.16 4.749 -3.89028 0
M  V30 13811 C 1331.53 4.67211 -4.07571 0
M  V30 13812 C 1333.58 4.0801 -2.85364 0
M  V30 13813 C 1332.29 4.9265 -5.24107 0
M  V30 13814 C 1334.31 4.346 -4.01095 0
M  V30 13815 C 1333.67 4.76252 -5.19003 0
M  V30 13816 H 1329.77 0.759152 -0.18765 0
M  V30 13817 H 1332.36 1.64823 -1.03641 0
M  V30 13818 H 1330.53 3.8818 0.130762 0
M  V30 13819 H 1332.26 4.04664 -0.0539319 0
M  V30 13820 H 1329.02 4.26384 -2.06139 0
M  V30 13821 H 1329.44 4.98422 -4.58154 0
M  V30 13822 H 1334.08 3.74958 -1.95363 0
M  V30 13823 H 1331.8 5.2458 -6.14688 0
M  V30 13824 H 1335.39 4.2238 -4.00108 0
M  V30 13825 H 1334.27 4.96427 -6.07066 0
M  V30 13826 N 1331.77 0.549846 1.47697 0
M  V30 13827 C 1332.68 -0.205286 2.337 0
M  V30 13828 C 1333.69 -0.919271 1.47734 0
M  V30 13829 O 1334.87 -0.889808 1.80678 0
M  V30 13830 C 1331.94 -1.22658 3.24278 0
M  V30 13831 C 1331 -0.520815 4.26129 0
M  V30 13832 C 1330.23 -1.49345 5.12378 0
M  V30 13833 O 1330.45 -2.72772 5.00951 0
M  V30 13834 O 1329.39 -1.02197 5.93161 0
M  V30 13835 H 1333.21 0.499982 2.99556 0
M  V30 13836 H 1330.8 0.310538 1.46137 0
M  V30 13837 H 1332.68 -1.8163 3.80248 0
M  V30 13838 H 1331.35 -1.9139 2.61059 0
M  V30 13839 H 1330.26 0.109906 3.73939 0
M  V30 13840 H 1331.59 0.124922 4.92041 0
M  V30 13841 N 1333.25 -1.54984 0.285932 0
M  V30 13842 C 1334.52 -1.91872 -0.380083 0
M  V30 13843 C 1334.9 -1.21146 -1.72878 0
M  V30 13844 O 1334.25 -0.341999 -2.25926 0
M  V30 13845 C 1334.46 -3.45258 -0.509667 0
M  V30 13846 C 1335.81 -4.17232 -0.787549 0
M  V30 13847 O 1336.83 -3.51211 -0.594062 0
M  V30 13848 O 1335.69 -5.34085 -1.15826 0
M  V30 13849 H 1332.79 -0.799931 -0.209856 0
M  V30 13850 H 1335.33 -1.66403 0.332882 0
M  V30 13851 H 1334.1 -3.88829 0.439049 0
M  V30 13852 H 1333.73 -3.76715 -1.27168 0
M  V30 13853 N 1334.72 -0.0133892 -1.57594 0
M  V30 13854 C 1335.67 0.982482 -2.05746 0
M  V30 13855 C 1336.66 1.29508 -0.954801 0
M  V30 13856 O 1337.85 1.28382 -1.21848 0
M  V30 13857 C 1334.98 2.27012 -2.57527 0
M  V30 13858 C 1334.07 1.98658 -3.74694 0
M  V30 13859 N 1334.46 1.40512 -4.85891 0
M  V30 13860 C 1332.75 2.28732 -3.82881 0
M  V30 13861 C 1333.46 1.28933 -5.67231 0
M  V30 13862 N 1332.43 1.77951 -5.13648 0
M  V30 13863 H 1336.23 0.527626 -2.89125 0
M  V30 13864 H 1333.75 0.192001 -1.61261 0
M  V30 13865 H 1335.74 2.99212 -2.90306 0
M  V30 13866 H 1334.4 2.73139 -1.75572 0
M  V30 13867 H 1335.42 1.08217 -5.06468 0
M  V30 13868 H 1332.09 2.77641 -3.11804 0
M  V30 13869 H 1333.48 0.841051 -6.66615 0
M  V30 13870 N 1336.2 1.55448 0.259558 0
M  V30 13871 C 1337.15 1.85637 1.32374 0
M  V30 13872 C 1338.14 0.716256 1.44078 0
M  V30 13873 O 1339.33 0.977907 1.47533 0
M  V30 13874 C 1336.46 2.14353 2.68156 0
M  V30 13875 C 1335.54 3.34659 2.60508 0
M  V30 13876 N 1335.93 4.54241 2.22484 0
M  V30 13877 C 1334.23 3.37517 2.91545 0
M  V30 13878 C 1334.93 5.36358 2.25157 0
M  V30 13879 N 1333.91 4.751 2.64162 0
M  V30 13880 H 1337.71 2.75631 1.02005 0
M  V30 13881 H 1335.23 1.55505 0.468194 0
M  V30 13882 H 1337.22 2.34141 3.4494 0
M  V30 13883 H 1335.88 1.25651 2.99403 0
M  V30 13884 H 1336.89 4.80096 1.94237 0
M  V30 13885 H 1333.57 2.59048 3.27414 0
M  V30 13886 H 1334.96 6.42 1.98206 0
M  V30 13887 N 1337.68 -0.524672 1.4861 0
M  V30 13888 C 1338.61 -1.63782 1.66426 0
M  V30 13889 C 1339.59 -1.62177 0.513077 0
M  V30 13890 O 1340.78 -1.7929 0.74623 0
M  V30 13891 C 1337.91 -3.02354 1.70877 0
M  V30 13892 C 1336.86 -3.18819 2.85549 0
M  V30 13893 C 1336.19 -4.58506 2.75094 0
M  V30 13894 C 1337.49 -3.01086 4.26784 0
M  V30 13895 H 1339.18 -1.49127 2.59618 0
M  V30 13896 H 1336.73 -0.715997 1.24938 0
M  V30 13897 H 1338.68 -3.80105 1.81929 0
M  V30 13898 H 1337.4 -3.18044 0.742682 0
M  V30 13899 H 1336.06 -2.43487 2.74061 0
M  V30 13900 H 1335.71 -4.71038 1.76443 0
M  V30 13901 H 1335.41 -4.70466 3.52044 0
M  V30 13902 H 1336.93 -5.38348 2.88121 0
M  V30 13903 H 1338.35 -3.68624 4.39077 0
M  V30 13904 H 1336.75 -3.24536 5.04774 0
M  V30 13905 H 1337.82 -1.97454 4.42877 0
M  V30 13906 N 1339.16 -1.37287 -0.77395 0
M  V30 13907 C 1340.09 -1.28746 -1.89624 0
M  V30 13908 C 1341.1 -0.203715 -1.6152 0
M  V30 13909 O 1342.29 -0.459684 -1.72479 0
M  V30 13910 C 1339.39 -0.967342 -3.24801 0
M  V30 13911 C 1338.57 -2.1561 -3.80567 0
M  V30 13912 C 1337.62 -1.80661 -4.94215 0
M  V30 13913 O 1336.65 -2.5293 -5.09917 0
M  V30 13914 N 1337.85 -0.749424 -5.75642 0
M  V30 13915 H 1340.62 -2.25447 -1.97468 0
M  V30 13916 H 1338.18 -1.30883 -0.952956 0
M  V30 13917 H 1340.17 -0.714421 -3.98344 0
M  V30 13918 H 1338.74 -0.0889573 -3.12473 0
M  V30 13919 H 1337.96 -2.57091 -2.98828 0
M  V30 13920 H 1339.25 -2.94993 -4.14556 0
M  V30 13921 H 1338.65 -0.149673 -5.65502 0
M  V30 13922 H 1337.2 -0.556358 -6.49421 0
M  V30 13923 N 1340.64 0.999871 -1.21821 0
M  V30 13924 C 1341.91 1.71135 -0.947213 0
M  V30 13925 C 1342.29 2.04087 0.539601 0
M  V30 13926 O 1341.64 1.71866 1.5058 0
M  V30 13927 C 1341.85 2.96704 -1.8376 0
M  V30 13928 C 1343.2 3.69627 -2.08952 0
M  V30 13929 O 1344.22 3.06697 -1.81151 0
M  V30 13930 O 1343.08 4.82832 -2.55999 0
M  V30 13931 H 1340.18 0.746631 -0.355628 0
M  V30 13932 H 1342.72 1.05684 -1.32774 0
M  V30 13933 H 1341.49 2.68802 -2.84361 0
M  V30 13934 H 1341.12 3.69894 -1.45821 0
M  V30 13935 N 1342.11 1.02678 1.19562 0
M  V30 13936 C 1343.04 0.626359 2.24942 0
M  V30 13937 C 1344.03 -0.363612 1.66168 0
M  V30 13938 O 1345.21 -0.246793 1.92625 0
M  V30 13939 C 1342.34 -0.0257912 3.4729 0
M  V30 13940 C 1341.29 0.886237 4.18724 0
M  V30 13941 C 1340.62 0.0993081 5.34608 0
M  V30 13942 C 1341.92 2.19901 4.73752 0
M  V30 13943 H 1343.61 1.50729 2.58691 0
M  V30 13944 H 1341.16 0.726195 1.24348 0
M  V30 13945 H 1343.11 -0.317545 4.20202 0
M  V30 13946 H 1341.84 -0.941511 3.12735 0
M  V30 13947 H 1340.5 1.16215 3.47692 0
M  V30 13948 H 1340.14 -0.81838 4.96298 0
M  V30 13949 H 1339.84 0.706776 5.83334 0
M  V30 13950 H 1341.37 -0.185754 6.10317 0
M  V30 13951 H 1342.78 1.96892 5.3843 0
M  V30 13952 H 1341.18 2.75821 5.32956 0
M  V30 13953 H 1342.25 2.85509 3.91934 0
M  V30 13954 N 1343.59 -1.35528 0.804364 0
M  V30 13955 C 1344.52 -2.28562 0.170893 0
M  V30 13956 C 1345.54 -1.50178 -0.628526 0
M  V30 13957 O 1346.73 -1.72438 -0.461252 0
M  V30 13958 C 1343.83 -3.29792 -0.780434 0
M  V30 13959 C 1343 -4.37391 -0.0278619 0
M  V30 13960 C 1342.06 -5.18492 -0.897341 0
M  V30 13961 O 1341.08 -5.68128 -0.349098 0
M  V30 13962 N 1342.29 -5.36385 -2.21971 0
M  V30 13963 H 1345.05 -2.83565 0.970108 0
M  V30 13964 H 1342.61 -1.47854 0.659617 0
M  V30 13965 H 1344.6 -3.80939 -1.36628 0
M  V30 13966 H 1343.17 -2.7532 -1.48046 0
M  V30 13967 H 1342.39 -3.87208 0.739178 0
M  V30 13968 H 1343.68 -5.06426 0.490889 0
M  V30 13969 H 1343.08 -4.97699 -2.6891 0
M  V30 13970 H 1341.64 -5.90721 -2.75485 0
M  V30 13971 N 1345.07 -0.557671 -1.47404 0
M  V30 13972 C 1346.35 0.031908 -1.95574 0
M  V30 13973 C 1346.73 1.48509 -1.50027 0
M  V30 13974 O 1346.08 2.16209 -0.73932 0
M  V30 13975 C 1346.29 -0.114055 -3.48814 0
M  V30 13976 C 1347.63 0.0310533 -4.24589 0
M  V30 13977 O 1348.66 -0.041626 -3.56176 0
M  V30 13978 O 1347.52 0.187487 -5.46178 0
M  V30 13979 H 1344.61 0.0638747 -0.82453 0
M  V30 13980 H 1347.16 -0.624227 -1.57802 0
M  V30 13981 H 1345.93 -1.12525 -3.74772 0
M  V30 13982 H 1345.55 0.57967 -3.93352 0
M  V30 13983 N 1346.55 1.54831 -0.294147 0
M  V30 13984 C 1347.77 2.04873 0.32276 0
M  V30 13985 C 1348.2 1.17034 1.47257 0
M  V30 13986 O 1347.56 0.172949 1.80473 0
M  V30 13987 C 1347.61 3.52431 0.76319 0
M  V30 13988 O 1346.71 3.67635 1.86865 0
M  V30 13989 H 1346.05 0.660926 0.0638162 0
M  V30 13990 H 1348.58 1.99944 -0.433995 0
M  V30 13991 H 1348.59 3.94155 1.05385 0
M  V30 13992 H 1347.27 4.15827 -0.0779464 0
M  V30 13993 H 1345.84 3.37816 1.57907 0
M  V30 13994 N 1348.03 0.0217466 1.57585 0
M  V30 13995 C 1349.26 -0.667911 1.95506 0
M  V30 13996 C 1349.67 -1.66616 0.89642 0
M  V30 13997 O 1349.01 -1.83232 -0.131059 0
M  V30 13998 C 1349.07 -1.43696 3.29533 0
M  V30 13999 C 1348.73 -0.59787 4.53072 0
M  V30 14000 C 1349.73 0.12372 5.19753 0
M  V30 14001 C 1347.42 -0.53744 4.99417 0
M  V30 14002 C 1349.41 0.894491 6.31092 0
M  V30 14003 C 1347.1 0.237041 6.1064 0
M  V30 14004 C 1348.1 0.95172 6.76337 0
M  V30 14005 O 1347.78 1.71352 7.85426 0
M  V30 14006 H 1347.52 -0.189544 0.648883 0
M  V30 14007 H 1350.07 0.0755682 2.05261 0
M  V30 14008 H 1348.3 -2.22541 3.16247 0
M  V30 14009 H 1349.99 -2.01402 3.52409 0
M  V30 14010 H 1350.75 0.0863208 4.84923 0
M  V30 14011 H 1346.63 -1.08327 4.48092 0
M  V30 14012 H 1350.18 1.45285 6.82304 0
M  V30 14013 H 1346.07 0.276183 6.44909 0
M  V30 14014 H 1346.84 1.63252 8.02054 0
M  V30 14015 N 1349.51 -1.55583 -0.251311 0
M  V30 14016 C 1350.75 -1.76859 -0.978031 0
M  V30 14017 C 1351.07 -0.584924 -1.86021 0
M  V30 14018 O 1350.34 0.399456 -1.91784 0
M  V30 14019 H 1348.92 -0.652252 -0.364111 0
M  V30 14020 H 1351.59 -1.93016 -0.270319 0
M  V30 14021 H 1350.68 -2.67828 -1.60233 0
M  V30 14022 N 1350.98 0.516783 -1.48886 0
M  V30 14023 C 1351.92 1.63632 -1.60491 0
M  V30 14024 C 1352.93 1.55301 -0.488424 0
M  V30 14025 O 1354.12 1.6152 -0.75983 0
M  V30 14026 C 1351.22 3.02351 -1.53093 0
M  V30 14027 C 1350.39 3.36028 -2.80006 0
M  V30 14028 C 1349.45 4.54087 -2.65879 0
M  V30 14029 O 1348.48 4.56652 -3.3979 0
M  V30 14030 N 1349.68 5.53058 -1.76372 0
M  V30 14031 H 1352.44 1.54109 -2.57042 0
M  V30 14032 H 1350 0.704338 -1.45776 0
M  V30 14033 H 1352 3.79225 -1.41318 0
M  V30 14034 H 1350.57 3.05881 -0.644637 0
M  V30 14035 H 1349.79 2.48204 -3.06249 0
M  V30 14036 H 1351.07 3.5532 -3.64177 0
M  V30 14037 H 1350.47 5.53773 -1.1555 0
M  V30 14038 H 1349.03 6.29097 -1.70529 0
M  V30 14039 N 1352.46 1.37696 0.766659 0
M  V30 14040 C 1353.37 1.36075 1.91104 0
M  V30 14041 C 1354.39 0.259617 1.72052 0
M  V30 14042 O 1355.56 0.49586 1.952 0
M  V30 14043 C 1352.63 1.17176 3.26298 0
M  V30 14044 C 1351.69 2.36975 3.57968 0
M  V30 14045 C 1350.92 2.18968 4.86712 0
M  V30 14046 O 1351.15 1.17658 5.58133 0
M  V30 14047 O 1350.08 3.07269 5.17561 0
M  V30 14048 H 1353.91 2.32472 1.95424 0
M  V30 14049 H 1351.49 1.18478 0.910122 0
M  V30 14050 H 1353.37 1.08645 4.07154 0
M  V30 14051 H 1352.05 0.238559 3.2282 0
M  V30 14052 H 1350.95 2.51079 2.77327 0
M  V30 14053 H 1352.29 3.2888 3.66195 0
M  V30 14054 N 1353.94 -0.993397 1.22349 0
M  V30 14055 C 1355.19 -1.73635 1.05936 0
M  V30 14056 C 1355.54 -1.88166 -0.401414 0
M  V30 14057 O 1354.83 -1.41338 -1.2936 0
M  V30 14058 C 1355.03 -3.14191 1.70349 0
M  V30 14059 C 1354.86 -3.13367 3.22539 0
M  V30 14060 C 1353.63 -3.19289 3.91641 0
M  V30 14061 C 1355.82 -2.97559 4.1948 0
M  V30 14062 N 1353.81 -3.08213 5.30922 0
M  V30 14063 C 1355.18 -2.94506 5.45588 0
M  V30 14064 C 1357.23 -2.81947 4.10378 0
M  V30 14065 C 1355.94 -2.7744 6.63641 0
M  V30 14066 C 1357.96 -2.66241 5.28081 0
M  V30 14067 C 1357.32 -2.63875 6.53107 0
M  V30 14068 H 1353.42 -0.64505 0.44208 0
M  V30 14069 H 1356.01 -1.17981 1.54882 0
M  V30 14070 H 1354.18 -3.6809 1.23954 0
M  V30 14071 H 1355.91 -3.77046 1.47032 0
M  V30 14072 H 1352.66 -3.26951 3.42637 0
M  V30 14073 H 1353.09 -3.05986 6.03905 0
M  V30 14074 H 1357.73 -2.82574 3.14502 0
M  V30 14075 H 1355.45 -2.75558 7.59666 0
M  V30 14076 H 1359.03 -2.55144 5.2287 0
M  V30 14077 H 1357.91 -2.5187 7.42652 0
M  V30 14078 N 1355.42 -1.03311 -1.19015 0
M  V30 14079 C 1356.65 -0.751802 -1.92758 0
M  V30 14080 C 1357.06 0.689982 -1.7574 0
M  V30 14081 O 1356.42 1.46961 -1.08207 0
M  V30 14082 C 1356.47 -1.09892 -3.44392 0
M  V30 14083 O 1356.19 -2.48409 -3.60866 0
M  V30 14084 C 1357.69 -0.841029 -4.35249 0
M  V30 14085 H 1354.91 -0.274757 -0.612168 0
M  V30 14086 H 1357.45 -1.37873 -1.51034 0
M  V30 14087 H 1355.61 -0.517092 -3.83933 0
M  V30 14088 H 1356.02 -2.61468 -4.54681 0
M  V30 14089 H 1357.5 -1.13383 -5.4023 0
M  V30 14090 H 1357.97 0.224434 -4.38626 0
M  V30 14091 H 1358.58 -1.40579 -4.01395 0
M  V30 14092 N 1356.9 1.35099 -0.81154 0
M  V30 14093 C 1358.14 1.98625 -0.394231 0
M  V30 14094 C 1358.47 1.6437 1.03985 0
M  V30 14095 O 1357.73 0.901496 1.737 0
M  V30 14096 C 1358.02 3.53444 -0.530322 0
M  V30 14097 C 1357.69 4.0758 -1.92844 0
M  V30 14098 C 1356.35 4.22077 -2.31094 0
M  V30 14099 C 1358.7 4.36838 -2.84292 0
M  V30 14100 C 1356.03 4.63153 -3.60148 0
M  V30 14101 C 1358.38 4.79355 -4.12798 0
M  V30 14102 C 1357.05 4.92057 -4.51039 0
M  V30 14103 H 1356.32 0.726822 -0.144259 0
M  V30 14104 H 1358.97 1.61231 -1.03329 0
M  V30 14105 H 1357.27 3.91328 0.192166 0
M  V30 14106 H 1358.97 4.00558 -0.188134 0
M  V30 14107 H 1355.56 3.96752 -1.62129 0
M  V30 14108 H 1359.74 4.25187 -2.55988 0
M  V30 14109 H 1355 4.71176 -3.89619 0
M  V30 14110 H 1359.17 5.00954 -4.83754 0
M  V30 14111 H 1356.8 5.23643 -5.51092 0
M  V30 14112 N 1358.37 0.56548 1.47106 0
M  V30 14113 C 1359.62 0.0444375 2.02051 0
M  V30 14114 C 1359.94 -1.31344 1.44131 0
M  V30 14115 O 1359.21 -1.85845 0.619556 0
M  V30 14116 H 1357.79 0.0134375 0.746879 0
M  V30 14117 H 1360.45 0.737362 1.80413 0
M  V30 14118 H 1359.55 -0.0374834 3.12077 0
M  V30 14119 N 1359.85 -1.54672 0.302354 0
M  V30 14120 C 1360.78 -2.21021 -0.606828 0
M  V30 14121 C 1361.8 -1.20337 -1.09648 0
M  V30 14122 O 1362.99 -1.46923 -1.0137 0
M  V30 14123 C 1360.09 -2.84411 -1.84293 0
M  V30 14124 C 1359.26 -4.11038 -1.49554 0
M  V30 14125 C 1358.32 -4.58219 -2.58693 0
M  V30 14126 O 1357.34 -5.23387 -2.23728 0
M  V30 14127 N 1358.55 -4.30651 -3.89256 0
M  V30 14128 H 1361.31 -2.99675 -0.0388221 0
M  V30 14129 H 1358.87 -1.6142 0.124614 0
M  V30 14130 H 1360.86 -3.12906 -2.56655 0
M  V30 14131 H 1359.43 -2.09589 -2.31929 0
M  V30 14132 H 1358.65 -3.89538 -0.604492 0
M  V30 14133 H 1359.94 -4.93488 -1.23884 0
M  V30 14134 H 1359.34 -3.78445 -4.20471 0
M  V30 14135 H 1357.9 -4.63853 -4.57913 0
M  V30 14136 N 1361.33 -0.0301034 -1.57571 0
M  V30 14137 C 1362.75 0.326296 -1.56229 0
M  V30 14138 C 1362.95 1.72839 -1.03581 0
M  V30 14139 O 1362 2.43088 -0.682979 0
M  V30 14140 C 1363.32 0.174001 -3.00196 0
M  V30 14141 C 1364.86 0.246694 -3.12026 0
M  V30 14142 C 1365.34 0.123177 -4.57834 0
M  V30 14143 N 1366.83 0.180129 -4.6285 0
M  V30 14144 C 1367.56 0.108353 -5.73298 0
M  V30 14145 N 1367.06 -0.0145648 -6.92798 0
M  V30 14146 N 1368.85 0.162411 -5.61865 0
M  V30 14147 H 1361 -0.946945 -1.90123 0
M  V30 14148 H 1363.27 -0.365762 -0.874598 0
M  V30 14149 H 1362.97 -0.791871 -3.42669 0
M  V30 14150 H 1362.85 0.943794 -3.65202 0
M  V30 14151 H 1365.23 1.20303 -2.69465 0
M  V30 14152 H 1365.32 -0.553493 -2.4974 0
M  V30 14153 H 1364.96 -0.82974 -5.01077 0
M  V30 14154 H 1364.89 0.94224 -5.18102 0
M  V30 14155 H 1367.38 0.275236 -3.76896 0
M  V30 14156 H 1367.69 -0.062614 -7.72775 0
M  V30 14157 H 1366.04 -0.0493606 -6.94982 0
M  V30 14158 H 1369.23 0.256847 -4.67395 0
M  V30 14159 H 1369.4 0.103013 -6.47918 0
M  V30 14160 N 1362.81 1.55714 0.243056 0
M  V30 14161 C 1363.74 1.93655 1.30461 0
M  V30 14162 C 1364.72 0.801968 1.50008 0
M  V30 14163 O 1365.9 1.06256 1.62552 0
M  V30 14164 C 1363.03 2.23459 2.65863 0
M  V30 14165 C 1361.99 3.39205 2.61006 0
M  V30 14166 C 1361.31 3.5456 4.00239 0
M  V30 14167 C 1362.61 4.74787 2.17656 0
M  V30 14168 H 1364.31 2.82575 0.98954 0
M  V30 14169 H 1361.85 1.35955 0.474572 0
M  V30 14170 H 1363.81 2.48591 3.40266 0
M  V30 14171 H 1362.53 1.31369 2.99014 0
M  V30 14172 H 1361.19 3.14088 1.89061 0
M  V30 14173 H 1360.84 2.59884 4.30661 0
M  V30 14174 H 1360.54 4.32399 3.97876 0
M  V30 14175 H 1362.06 3.82017 4.76335 0
M  V30 14176 H 1363.48 4.99266 2.81792 0
M  V30 14177 H 1361.87 5.55756 2.26397 0
M  V30 14178 H 1362.94 4.7159 1.12831 0
M  V30 14179 N 1364.29 -0.50888 1.49158 0
M  V30 14180 C 1365.52 -1.28585 1.61708 0
M  V30 14181 C 1365.92 -1.87047 0.284629 0
M  V30 14182 O 1365.27 -1.68182 -0.738959 0
M  V30 14183 C 1365.33 -2.46043 2.62113 0
M  V30 14184 C 1364.99 -2.0851 4.0666 0
M  V30 14185 C 1365.99 -1.62943 4.93706 0
M  V30 14186 C 1363.68 -2.18386 4.52342 0
M  V30 14187 C 1365.67 -1.27747 6.24467 0
M  V30 14188 C 1363.36 -1.82801 5.83118 0
M  V30 14189 C 1364.35 -1.37555 6.69005 0
M  V30 14190 O 1364.04 -1.02447 7.97345 0
M  V30 14191 H 1363.77 -0.396504 0.547504 0
M  V30 14192 H 1366.33 -0.61834 1.95872 0
M  V30 14193 H 1364.56 -3.15844 2.23113 0
M  V30 14194 H 1366.25 -3.08081 2.64275 0
M  V30 14195 H 1367.01 -1.54766 4.59644 0
M  V30 14196 H 1362.89 -2.52556 3.85664 0
M  V30 14197 H 1366.44 -0.923589 6.91459 0
M  V30 14198 H 1362.33 -1.90626 6.16711 0
M  V30 14199 H 1363.1 -1.15663 8.10287 0
M  V30 14200 N 1365.76 -1.381 -0.759346 0
M  V30 14201 C 1366.7 -1.3075 -1.88248 0
M  V30 14202 C 1367.71 -0.220835 -1.61295 0
M  V30 14203 O 1368.9 -0.477952 -1.71982 0
M  V30 14204 C 1366 -1.00174 -3.23757 0
M  V30 14205 C 1365.17 -2.19635 -3.78258 0
M  V30 14206 C 1364.23 -1.85892 -4.92271 0
M  V30 14207 O 1363.26 -2.58325 -5.07205 0
M  V30 14208 N 1364.46 -0.810436 -5.74815 0
M  V30 14209 H 1367.22 -2.27529 -1.95065 0
M  V30 14210 H 1364.78 -1.31886 -0.93902 0
M  V30 14211 H 1366.78 -0.756631 -3.97564 0
M  V30 14212 H 1365.35 -0.122094 -3.12361 0
M  V30 14213 H 1364.57 -2.60246 -2.96084 0
M  V30 14214 H 1365.85 -2.99373 -4.11404 0
M  V30 14215 H 1365.25 -0.209644 -5.65311 0
M  V30 14216 H 1363.81 -0.625206 -6.48795 0
M  V30 14217 N 1367.24 0.986894 -1.22875 0
M  V30 14218 C 1368.17 2.08035 -0.961971 0
M  V30 14219 C 1369.19 1.62683 0.0616475 0
M  V30 14220 O 1370.38 1.77659 -0.173094 0
M  V30 14221 C 1367.48 3.36208 -0.426302 0
M  V30 14222 C 1366.65 4.10562 -1.50856 0
M  V30 14223 C 1365.71 5.17014 -0.97891 0
M  V30 14224 O 1364.73 5.44259 -1.66645 0
M  V30 14225 N 1365.94 5.80167 0.196613 0
M  V30 14226 H 1368.7 2.315 -1.90336 0
M  V30 14227 H 1366.26 1.1531 -1.13645 0
M  V30 14228 H 1368.25 4.0466 -0.0571577 0
M  V30 14229 H 1366.82 3.09761 0.420345 0
M  V30 14230 H 1366.04 3.36656 -2.05076 0
M  V30 14231 H 1367.33 4.57007 -2.23655 0
M  V30 14232 H 1366.73 5.60409 0.771892 0
M  V30 14233 H 1365.29 6.49825 0.507083 0
M  V30 14234 N 1368.72 1.0394 1.18466 0
M  V30 14235 C 1369.95 0.760909 1.92077 0
M  V30 14236 C 1370.36 -0.685622 1.7634 0
M  V30 14237 O 1369.7 -1.47894 1.08963 0
M  V30 14238 C 1369.76 1.04583 3.43952 0
M  V30 14239 C 1369.43 2.48602 3.83466 0
M  V30 14240 C 1370.42 3.46775 3.87354 0
M  V30 14241 C 1368.11 2.8328 4.14798 0
M  V30 14242 C 1370.1 4.77678 4.22022 0
M  V30 14243 C 1367.79 4.1439 4.49138 0
M  V30 14244 C 1368.79 5.11399 4.52725 0
M  V30 14245 O 1368.48 6.40159 4.86264 0
M  V30 14246 H 1368.21 0.276991 0.616646 0
M  V30 14247 H 1370.76 1.3898 1.5124 0
M  V30 14248 H 1368.99 0.359807 3.85022 0
M  V30 14249 H 1370.68 0.755336 3.9881 0
M  V30 14250 H 1371.45 3.21323 3.63286 0
M  V30 14251 H 1367.33 2.08444 4.11184 0
M  V30 14252 H 1370.87 5.53393 4.24737 0
M  V30 14253 H 1366.77 4.39611 4.72666 0
M  V30 14254 H 1367.54 6.4479 5.04171 0
M  V30 14255 N 1370.2 -1.34667 0.818693 0
M  V30 14256 C 1371.43 -2.02642 0.417608 0
M  V30 14257 C 1371.84 -1.61667 -0.97516 0
M  V30 14258 O 1371.2 -0.820056 -1.63038 0
M  V30 14259 C 1371.25 -3.57951 0.505295 0
M  V30 14260 O 1370.97 -3.97441 1.84317 0
M  V30 14261 C 1372.47 -4.4319 0.0985667 0
M  V30 14262 H 1369.69 -0.6496 0.168111 0
M  V30 14263 H 1372.24 -1.72032 1.10568 0
M  V30 14264 H 1370.39 -3.87166 -0.134646 0
M  V30 14265 H 1370.8 -4.92116 1.81444 0
M  V30 14266 H 1372.28 -5.51597 0.211015 0
M  V30 14267 H 1372.76 -4.28637 -0.95745 0
M  V30 14268 H 1373.36 -4.19295 0.71214 0
M  V30 14269 N 1371.68 -0.573274 -1.46804 0
M  V30 14270 C 1372.92 -0.057823 -2.04318 0
M  V30 14271 C 1373.28 1.27424 -1.43622 0
M  V30 14272 O 1374.48 1.87835 -1.92279 0
M  V30 14273 C 1372.75 0.016823 -3.57396 0
M  V30 14274 S 1374.31 0.476068 -4.3621 0
M  V30 14275 H 1371.13 -0.0329025 -0.710238 0
M  V30 14276 H 1373.73 -0.76364 -1.79969 0
M  V30 14277 H 1372.44 -0.956757 -3.99092 0
M  V30 14278 H 1371.97 0.745702 -3.86268 0
M  V30 14279 H 1373.98 1.73268 -4.64965 0
M  V30 14280 N 1373.15 1.5451 -0.310553 0
M  V30 14281 C 1374.38 2.04442 0.297807 0
M  V30 14282 C 1374.79 1.18695 1.47337 0
M  V30 14283 O 1374.14 0.207405 1.82525 0
M  V30 14284 C 1374.2 3.50306 0.807851 0
M  V30 14285 C 1373.86 4.5635 -0.24369 0
M  V30 14286 C 1374.86 5.08656 -1.07539 0
M  V30 14287 C 1372.54 5.00798 -0.388138 0
M  V30 14288 C 1374.54 6.03961 -2.03738 0
M  V30 14289 C 1372.22 5.95921 -1.35357 0
M  V30 14290 C 1373.22 6.47387 -2.17667 0
M  V30 14291 O 1372.91 7.40644 -3.12571 0
M  V30 14292 H 1372.64 0.672646 0.0672525 0
M  V30 14293 H 1375.2 2.00389 -0.450948 0
M  V30 14294 H 1373.43 3.51714 1.6073 0
M  V30 14295 H 1375.12 3.83383 1.33314 0
M  V30 14296 H 1375.88 4.75105 -0.97471 0
M  V30 14297 H 1371.76 4.60361 0.242608 0
M  V30 14298 H 1375.3 6.44057 -2.68023 0
M  V30 14299 H 1371.2 6.2889 -1.45493 0
M  V30 14300 H 1371.97 7.58477 -3.0766 0
M  V30 14301 N 1374.63 0.0384594 1.57553 0
M  V30 14302 C 1375.86 -0.648077 1.96488 0
M  V30 14303 C 1376.28 -1.65123 0.915414 0
M  V30 14304 O 1375.63 -1.82216 -0.101779 0
M  V30 14305 C 1375.68 -1.34623 3.35498 0
M  V30 14306 O 1375.41 -0.383261 4.3642 0
M  V30 14307 C 1376.91 -2.12372 3.89119 0
M  V30 14308 H 1374.13 -0.178068 0.646941 0
M  V30 14309 H 1376.67 0.100993 2.0425 0
M  V30 14310 H 1374.83 -2.04663 3.28926 0
M  V30 14311 H 1375.24 -0.880095 5.17063 0
M  V30 14312 H 1376.71 -2.5666 4.88702 0
M  V30 14313 H 1377.19 -2.96664 3.23863 0
M  V30 14314 H 1377.8 -1.4727 3.98988 0
M  V30 14315 N 1376.11 -1.55841 -0.234795 0
M  V30 14316 C 1377.36 -1.78502 -0.96254 0
M  V30 14317 C 1377.69 -0.605832 -1.84508 0
M  V30 14318 O 1376.97 0.395446 -1.90438 0
M  V30 14319 C 1377.25 -3.11144 -1.81277 0
M  V30 14320 C 1377.1 -4.39488 -0.957607 0
M  V30 14321 C 1378.42 -3.40114 -2.79304 0
M  V30 14322 H 1375.54 -0.649397 -0.348501 0
M  V30 14323 H 1378.18 -1.88575 -0.23224 0
M  V30 14324 H 1376.33 -3.02687 -2.43542 0
M  V30 14325 H 1378 -4.59949 -0.352726 0
M  V30 14326 H 1376.25 -4.33005 -0.262454 0
M  V30 14327 H 1376.92 -5.28707 -1.58659 0
M  V30 14328 H 1379.39 -3.48612 -2.27175 0
M  V30 14329 H 1378.27 -4.34118 -3.35906 0
M  V30 14330 H 1378.53 -2.61623 -3.56378 0
M  V30 14331 N 1377.59 0.500963 -1.49426 0
M  V30 14332 C 1378.84 1.25509 -1.58915 0
M  V30 14333 C 1379.16 1.92534 -0.275868 0
M  V30 14334 O 1378.42 1.81324 0.736212 0
M  V30 14335 C 1378.72 2.34448 -2.69757 0
M  V30 14336 C 1378.38 1.8488 -4.11254 0
M  V30 14337 C 1377.05 1.71081 -4.49761 0
M  V30 14338 C 1379.4 1.4778 -4.9981 0
M  V30 14339 C 1376.73 1.18561 -5.74596 0
M  V30 14340 C 1379.08 0.967118 -6.25164 0
M  V30 14341 C 1377.74 0.815523 -6.62499 0
M  V30 14342 H 1377.01 0.459268 -0.58151 0
M  V30 14343 H 1379.66 0.555817 -1.83256 0
M  V30 14344 H 1377.96 3.10163 -2.39387 0
M  V30 14345 H 1379.66 2.925 -2.74308 0
M  V30 14346 H 1376.25 1.9658 -3.8086 0
M  V30 14347 H 1380.44 1.57288 -4.70717 0
M  V30 14348 H 1375.69 1.05536 -6.02223 0
M  V30 14349 H 1379.87 0.670857 -6.93161 0
M  V30 14350 H 1377.49 0.406375 -7.59113 0
M  V30 14351 N 1379.07 1.38501 0.752011 0
M  V30 14352 C 1380.31 1.34795 1.51118 0
M  V30 14353 C 1380.64 -0.0615084 1.94403 0
M  V30 14354 O 1379.9 -1.03892 1.65846 0
M  V30 14355 C 1380.2 2.25111 2.77596 0
M  V30 14356 C 1379.86 3.73052 2.53265 0
M  V30 14357 C 1378.52 4.13365 2.46339 0
M  V30 14358 C 1380.88 4.66692 2.32051 0
M  V30 14359 C 1378.2 5.45406 2.16216 0
M  V30 14360 C 1380.56 5.98992 2.03448 0
M  V30 14361 C 1379.22 6.38388 1.94979 0
M  V30 14362 H 1378.49 0.49325 0.552979 0
M  V30 14363 H 1381.14 1.70872 0.864588 0
M  V30 14364 H 1379.44 1.82096 3.46913 0
M  V30 14365 H 1381.14 2.19547 3.3556 0
M  V30 14366 H 1377.73 3.41091 2.59528 0
M  V30 14367 H 1381.91 4.36392 2.3638 0
M  V30 14368 H 1377.17 5.7487 2.08168 0
M  V30 14369 H 1381.34 6.71091 1.86037 0
M  V30 14370 H 1378.97 7.40625 1.71402 0
M  V30 14371 N 1380.55 -0.980364 1.23396 0
M  V30 14372 C 1381.79 -1.71592 1.06015 0
M  V30 14373 C 1382.11 -1.91401 -0.403103 0
M  V30 14374 O 1383.31 -2.62405 -0.696853 0
M  V30 14375 C 1381.77 -3.08795 1.84861 0
M  V30 14376 C 1381.38 -2.96873 3.35515 0
M  V30 14377 C 1383.12 -3.8631 1.75968 0
M  V30 14378 C 1381.03 -4.29308 4.06753 0
M  V30 14379 H 1379.96 -0.643423 0.393095 0
M  V30 14380 H 1382.61 -1.09345 1.47363 0
M  V30 14381 H 1380.99 -3.71797 1.36318 0
M  V30 14382 H 1382.17 -2.4296 3.91544 0
M  V30 14383 H 1380.48 -2.32833 3.45221 0
M  V30 14384 H 1383.08 -4.84355 2.26504 0
M  V30 14385 H 1383.42 -4.09983 0.722464 0
M  V30 14386 H 1383.95 -3.3001 2.22122 0
M  V30 14387 H 1380.69 -4.10831 5.10782 0
M  V30 14388 H 1380.21 -4.83086 3.55511 0
M  V30 14389 H 1381.89 -4.97995 4.1305 0
M  V30 14390 N 1382.02 -1.04567 -1.17913 0
M  V30 14391 C 1383.25 -0.772146 -1.92491 0
M  V30 14392 C 1383.67 0.665297 -1.75942 0
M  V30 14393 O 1383.03 1.46144 -1.07292 0
M  V30 14394 C 1383.08 -1.14966 -3.41782 0
M  V30 14395 O 1382.18 -0.278091 -4.11461 0
M  V30 14396 H 1381.52 -0.283715 -0.600335 0
M  V30 14397 H 1384.05 -1.39685 -1.49496 0
M  V30 14398 H 1384.06 -1.11374 -3.92505 0
M  V30 14399 H 1382.74 -2.1968 -3.53148 0
M  V30 14400 H 1381.32 -0.374073 -3.71019 0
M  V30 14401 N 1383.5 1.34231 -0.825823 0
M  V30 14402 C 1384.75 1.97454 -0.411661 0
M  V30 14403 C 1385.06 1.66193 1.03147 0
M  V30 14404 O 1386.27 2.22929 1.54968 0
M  V30 14405 C 1384.73 3.53318 -0.685145 0
M  V30 14406 C 1384.33 3.9347 -2.14208 0
M  V30 14407 C 1386.08 4.23158 -0.337291 0
M  V30 14408 C 1383.98 5.42258 -2.3603 0
M  V30 14409 H 1382.91 0.738889 -0.150196 0
M  V30 14410 H 1385.57 1.53033 -1.01258 0
M  V30 14411 H 1383.95 3.95998 -0.0140178 0
M  V30 14412 H 1385.12 3.61888 -2.85261 0
M  V30 14413 H 1383.44 3.36575 -2.45165 0
M  V30 14414 H 1386.03 5.32558 -0.47813 0
M  V30 14415 H 1386.38 4.10053 0.718499 0
M  V30 14416 H 1386.91 3.85965 -0.963113 0
M  V30 14417 H 1383.65 5.60352 -3.40126 0
M  V30 14418 H 1383.17 5.75345 -1.69524 0
M  V30 14419 H 1384.85 6.08976 -2.18533 0
M  V30 14420 N 1384.98 0.581051 1.46498 0
M  V30 14421 C 1385.89 -0.155669 2.34083 0
M  V30 14422 C 1386.91 -0.887728 1.49651 0
M  V30 14423 O 1388.08 -0.851284 1.82524 0
M  V30 14424 C 1385.15 -1.15752 3.26806 0
M  V30 14425 C 1384.21 -0.43031 4.27138 0
M  V30 14426 C 1383.44 -1.38443 5.15431 0
M  V30 14427 O 1383.66 -2.62084 5.06624 0
M  V30 14428 O 1382.6 -0.89592 5.95195 0
M  V30 14429 H 1386.42 0.56341 2.98428 0
M  V30 14430 H 1384.01 0.341466 1.45445 0
M  V30 14431 H 1385.89 -1.73523 3.84015 0
M  V30 14432 H 1384.57 -1.85809 2.65059 0
M  V30 14433 H 1383.47 0.1892 3.73621 0
M  V30 14434 H 1384.81 0.229263 4.91666 0
M  V30 14435 N 1386.46 -1.54343 0.318742 0
M  V30 14436 C 1387.7 -2.00777 -0.285699 0
M  V30 14437 C 1388.04 -1.20664 -1.52164 0
M  V30 14438 O 1387.31 -0.287674 -1.92361 0
M  V30 14439 C 1387.59 -3.54641 -0.624649 0
M  V30 14440 C 1387.45 -4.45483 0.621663 0
M  V30 14441 C 1388.77 -4.15729 -1.4442 0
M  V30 14442 H 1385.89 -0.729856 -0.102367 0
M  V30 14443 H 1388.53 -1.84968 0.434364 0
M  V30 14444 H 1386.68 -3.68243 -1.23811 0
M  V30 14445 H 1388.35 -4.43759 1.25998 0
M  V30 14446 H 1386.59 -4.15356 1.25148 0
M  V30 14447 H 1387.26 -5.50951 0.340106 0
M  V30 14448 H 1389.74 -4.05672 -0.925699 0
M  V30 14449 H 1388.62 -5.23509 -1.65013 0
M  V30 14450 H 1388.88 -3.68743 -2.43887 0
M  V30 14451 N 1387.94 -0.0468143 -1.5753 0
M  V30 14452 C 1389.18 0.631887 -1.94388 0
M  V30 14453 C 1389.54 1.68265 -0.924715 0
M  V30 14454 O 1390.74 2.41511 -1.18008 0
M  V30 14455 C 1389.01 1.21642 -3.36063 0
M  V30 14456 S 1390.57 1.91373 -3.94869 0
M  V30 14457 H 1387.39 0.207594 -0.680019 0
M  V30 14458 H 1389.99 -0.11471 -1.95163 0
M  V30 14459 H 1388.69 0.439479 -4.0804 0
M  V30 14460 H 1388.23 1.99993 -3.38772 0
M  V30 14461 H 1390.24 3.19392 -3.79741 0
M  V30 14462 N 1389.41 1.55964 0.226527 0
M  V30 14463 C 1390.35 1.88487 1.30405 0
M  V30 14464 C 1391.36 0.772723 1.43293 0
M  V30 14465 O 1392.55 1.05099 1.44279 0
M  V30 14466 C 1389.65 2.074 2.68027 0
M  V30 14467 C 1388.82 3.38389 2.77149 0
M  V30 14468 C 1387.88 3.46795 3.95752 0
M  V30 14469 O 1386.91 4.19862 3.84323 0
M  V30 14470 N 1388.11 2.77573 5.09836 0
M  V30 14471 H 1390.87 2.81506 1.02833 0
M  V30 14472 H 1388.43 1.56449 0.416581 0
M  V30 14473 H 1390.43 2.10344 3.45742 0
M  V30 14474 H 1389 1.2103 2.8822 0
M  V30 14475 H 1388.22 3.47586 1.8595 0
M  V30 14476 H 1389.5 4.24688 2.8021 0
M  V30 14477 H 1388.9 2.17979 5.22017 0
M  V30 14478 H 1387.46 2.86185 5.85612 0
M  V30 14479 N 1390.89 -0.493031 1.4969 0
M  V30 14480 C 1392.14 -1.2433 1.58823 0
M  V30 14481 C 1392.45 -1.9353 0.283823 0
M  V30 14482 O 1393.66 -2.70311 0.253801 0
M  V30 14483 C 1392.12 -2.25792 2.8026 0
M  V30 14484 C 1391.72 -1.62496 4.17491 0
M  V30 14485 C 1393.47 -3.01598 2.98729 0
M  V30 14486 C 1391.38 -2.62115 5.30141 0
M  V30 14487 H 1390.31 -0.467738 0.591386 0
M  V30 14488 H 1392.96 -0.516238 1.76089 0
M  V30 14489 H 1391.34 -3.01696 2.56506 0
M  V30 14490 H 1392.51 -0.925305 4.51414 0
M  V30 14491 H 1390.83 -0.990516 4.04447 0
M  V30 14492 H 1393.42 -3.76111 3.80058 0
M  V30 14493 H 1393.77 -3.59687 2.09597 0
M  V30 14494 H 1394.3 -2.32809 3.2256 0
M  V30 14495 H 1391.04 -2.08797 6.21357 0
M  V30 14496 H 1390.56 -3.30298 5.00663 0
M  V30 14497 H 1392.24 -3.24385 5.59807 0
M  V30 14498 N 1392.37 -1.38898 -0.744656 0
M  V30 14499 C 1393.33 -1.36633 -1.84022 0
M  V30 14500 C 1394.33 -0.265187 -1.58598 0
M  V30 14501 O 1395.52 -0.522569 -1.66177 0
M  V30 14502 C 1392.66 -1.12938 -3.21649 0
M  V30 14503 H 1393.85 -2.34111 -1.87435 0
M  V30 14504 H 1391.4 -1.24322 -0.947302 0
M  V30 14505 H 1392.14 -0.161027 -3.239 0
M  V30 14506 H 1391.92 -1.9267 -3.41498 0
M  V30 14507 H 1393.41 -1.14071 -4.01718 0
M  V30 14508 N 1393.85 0.973806 -1.23914 0
M  V30 14509 C 1395.13 1.69087 -0.9833 0
M  V30 14510 C 1395.51 2.05186 0.49619 0
M  V30 14511 O 1394.85 1.75021 1.46901 0
M  V30 14512 C 1395.06 2.92739 -1.90012 0
M  V30 14513 C 1396.41 3.65112 -2.16745 0
M  V30 14514 O 1397.44 3.02785 -1.87616 0
M  V30 14515 O 1396.29 4.77293 -2.66183 0
M  V30 14516 H 1393.39 0.738919 -0.371386 0
M  V30 14517 H 1395.93 1.02844 -1.34986 0
M  V30 14518 H 1394.71 2.6271 -2.89999 0
M  V30 14519 H 1394.33 3.66718 -1.53635 0
M  V30 14520 N 1395.33 1.05191 1.17357 0
M  V30 14521 C 1396.57 0.763113 1.87895 0
M  V30 14522 C 1396.91 -0.708071 1.80831 0
M  V30 14523 O 1396.18 -1.51777 1.21631 0
M  V30 14524 C 1396.46 1.2442 3.37923 0
M  V30 14525 C 1396.32 2.77832 3.53737 0
M  V30 14526 C 1397.64 0.843209 4.31947 0
M  V30 14527 H 1394.75 0.27869 0.682276 0
M  V30 14528 H 1397.4 1.3059 1.38008 0
M  V30 14529 H 1395.55 0.782438 3.80539 0
M  V30 14530 H 1397.22 3.32131 3.20135 0
M  V30 14531 H 1395.46 3.17108 2.96015 0
M  V30 14532 H 1396.13 3.06555 4.59052 0
M  V30 14533 H 1398.61 1.24073 3.97171 0
M  V30 14534 H 1397.48 1.20743 5.35455 0
M  V30 14535 H 1397.75 -0.252802 4.41377 0
M  V30 14536 N 1396.8 -1.33791 0.83293 0
M  V30 14537 C 1397.73 -2.31853 0.276846 0
M  V30 14538 C 1398.72 -1.58702 -0.612184 0
M  V30 14539 O 1399.9 -1.86629 -0.536975 0
M  V30 14540 C 1397.03 -3.42855 -0.55385 0
M  V30 14541 C 1395.98 -4.27333 0.238884 0
M  V30 14542 C 1395.31 -5.29895 -0.715187 0
M  V30 14543 C 1396.61 -5.01692 1.45265 0
M  V30 14544 H 1398.3 -2.78611 1.09618 0
M  V30 14545 H 1395.85 -1.33949 0.528562 0
M  V30 14546 H 1397.8 -4.10479 -0.953133 0
M  V30 14547 H 1396.53 -2.94771 -1.40634 0
M  V30 14548 H 1395.19 -3.61325 0.619656 0
M  V30 14549 H 1394.83 -4.7807 -1.56391 0
M  V30 14550 H 1394.53 -5.87296 -0.188921 0
M  V30 14551 H 1396.06 -6.00387 -1.11211 0
M  V30 14552 H 1397.47 -5.62117 1.12685 0
M  V30 14553 H 1395.87 -5.68715 1.91528 0
M  V30 14554 H 1396.94 -4.30809 2.22558 0
M  V30 14555 N 1398.28 -0.588812 -1.46187 0
M  V30 14556 C 1399.53 -0.0744093 -2.01563 0
M  V30 14557 C 1399.84 1.29578 -1.46523 0
M  V30 14558 O 1401.05 1.90186 -1.93756 0
M  V30 14559 C 1399.51 -0.082408 -3.59806 0
M  V30 14560 C 1399.11 -1.45129 -4.23842 0
M  V30 14561 C 1400.86 0.377732 -4.22816 0
M  V30 14562 C 1398.77 -1.41668 -5.74181 0
M  V30 14563 H 1397.7 -0.0240481 -0.753616 0
M  V30 14564 H 1400.35 -0.741364 -1.67857 0
M  V30 14565 H 1398.73 0.650832 -3.90615 0
M  V30 14566 H 1399.9 -2.20474 -4.04633 0
M  V30 14567 H 1398.22 -1.85196 -3.7295 0
M  V30 14568 H 1400.81 0.42251 -5.33028 0
M  V30 14569 H 1401.16 1.39655 -3.92176 0
M  V30 14570 H 1401.69 -0.301638 -3.96655 0
M  V30 14571 H 1398.43 -2.4125 -6.09491 0
M  V30 14572 H 1397.95 -0.705524 -5.95636 0
M  V30 14573 H 1399.63 -1.13221 -6.37016 0
M  V30 14574 N 1399.76 1.54172 -0.326923 0
M  V30 14575 C 1401.18 1.59579 0.0256055 0
M  V30 14576 C 1401.38 1.34337 1.50186 0
M  V30 14577 O 1400.43 1.12945 2.25831 0
M  V30 14578 C 1401.75 2.98086 -0.395641 0
M  V30 14579 C 1403.29 3.11075 -0.346579 0
M  V30 14580 C 1403.77 4.51932 -0.743039 0
M  V30 14581 N 1405.26 4.57932 -0.696575 0
M  V30 14582 C 1405.99 5.65041 -0.975493 0
M  V30 14583 N 1405.49 6.80075 -1.32172 0
M  V30 14584 N 1407.28 5.54835 -0.900831 0
M  V30 14585 H 1399.43 1.68836 -1.28872 0
M  V30 14586 H 1401.7 0.789858 -0.52424 0
M  V30 14587 H 1401.4 3.21568 -1.42431 0
M  V30 14588 H 1401.28 3.76451 0.237645 0
M  V30 14589 H 1403.66 2.87326 0.672889 0
M  V30 14590 H 1403.75 2.34807 -1.01484 0
M  V30 14591 H 1403.39 4.76415 -1.76044 0
M  V30 14592 H 1403.32 5.26574 -0.0524263 0
M  V30 14593 H 1405.81 3.75318 -0.440969 0
M  V30 14594 H 1406.12 7.57708 -1.51983 0
M  V30 14595 H 1404.47 6.81563 -1.36001 0
M  V30 14596 H 1407.66 4.63844 -0.629812 0
M  V30 14597 H 1407.83 6.3822 -1.12156 0
M  V30 14598 N 1401.24 0.0551678 1.57503 0
M  V30 14599 C 1402.19 -0.917847 2.11764 0
M  V30 14600 C 1403.16 -1.30624 1.02599 0
M  V30 14601 O 1404.34 -1.39501 1.30169 0
M  V30 14602 C 1401.48 -2.18599 2.67036 0
M  V30 14603 C 1400.59 -1.85173 3.90301 0
M  V30 14604 C 1399.73 -3.06475 4.33874 0
M  V30 14605 C 1398.77 -2.68988 5.49829 0
M  V30 14606 N 1397.9 -3.82997 5.88437 0
M  V30 14607 H 1402.74 -0.448236 2.9461 0
M  V30 14608 H 1400.28 -0.209619 1.45599 0
M  V30 14609 H 1402.24 -2.92811 2.97183 0
M  V30 14610 H 1400.87 -2.6313 1.86982 0
M  V30 14611 H 1399.92 -1.01094 3.66721 0
M  V30 14612 H 1401.23 -1.53582 4.74567 0
M  V30 14613 H 1400.39 -3.88982 4.65594 0
M  V30 14614 H 1399.13 -3.41247 3.48427 0
M  V30 14615 H 1398.13 -1.84899 5.17776 0
M  V30 14616 H 1399.36 -2.35404 6.36994 0
M  V30 14617 H 1397.3 -4.17562 5.05942 0
M  V30 14618 H 1397.22 -3.55118 6.67403 0
M  V30 14619 H 1398.49 -4.66131 6.24773 0
M  V30 14620 N 1402.72 -1.56081 -0.218252 0
M  V30 14621 C 1403.94 -1.83334 -0.958964 0
M  V30 14622 C 1404.36 -0.63472 -1.77811 0
M  V30 14623 O 1403.72 0.396729 -1.78136 0
M  V30 14624 C 1403.77 -3.09141 -1.87387 0
M  V30 14625 O 1403.49 -4.24379 -1.08783 0
M  V30 14626 C 1404.99 -3.49405 -2.7282 0
M  V30 14627 H 1402.21 -0.609375 -0.280898 0
M  V30 14628 H 1404.75 -2.03174 -0.232486 0
M  V30 14629 H 1402.91 -2.91267 -2.55426 0
M  V30 14630 H 1403.32 -4.9587 -1.70919 0
M  V30 14631 H 1404.8 -4.40461 -3.32713 0
M  V30 14632 H 1405.27 -2.71311 -3.45379 0
M  V30 14633 H 1405.88 -3.6973 -2.1019 0
M  V30 14634 N 1404.2 0.485086 -1.49949 0
M  V30 14635 C 1405.61 0.817651 -1.37064 0
M  V30 14636 C 1405.81 1.9716 -0.415949 0
M  V30 14637 O 1404.87 2.52074 0.146567 0
M  V30 14638 C 1406.18 1.14288 -2.78134 0
M  V30 14639 C 1407.73 1.25016 -2.8695 0
M  V30 14640 C 1408.2 1.60859 -4.28822 0
M  V30 14641 N 1409.69 1.67878 -4.31707 0
M  V30 14642 C 1410.43 1.97089 -5.38464 0
M  V30 14643 N 1409.93 2.24415 -6.55446 0
M  V30 14644 N 1411.72 1.98474 -5.25894 0
M  V30 14645 H 1403.87 -0.275606 -2.10604 0
M  V30 14646 H 1406.13 -0.0607486 -0.946052 0
M  V30 14647 H 1405.84 0.36817 -3.49768 0
M  V30 14648 H 1405.71 2.0825 -3.14502 0
M  V30 14649 H 1408.1 2.01556 -2.15544 0
M  V30 14650 H 1408.18 0.290664 -2.54143 0
M  V30 14651 H 1407.82 0.848639 -5.0076 0
M  V30 14652 H 1407.75 2.57936 -4.59104 0
M  V30 14653 H 1410.25 1.48856 -3.47347 0
M  V30 14654 H 1410.56 2.45938 -7.32622 0
M  V30 14655 H 1408.9 2.21837 -6.58645 0
M  V30 14656 H 1412.09 1.76612 -4.33504 0
M  V30 14657 H 1412.27 2.20904 -6.09184 0
M  V30 14658 N 1405.67 1.39291 0.737279 0
M  V30 14659 C 1407.09 1.20845 1.04253 0
M  V30 14660 C 1407.29 0.0684513 2.01384 0
M  V30 14661 O 1406.35 -0.580615 2.45734 0
M  V30 14662 C 1407.66 2.54158 1.60699 0
M  V30 14663 C 1409.21 2.60983 1.72791 0
M  V30 14664 C 1409.68 3.94511 2.32647 0
M  V30 14665 N 1411.17 3.96138 2.4006 0
M  V30 14666 C 1411.91 4.96229 2.87306 0
M  V30 14667 N 1411.4 6.06716 3.34465 0
M  V30 14668 N 1413.2 4.83609 2.86494 0
M  V30 14669 H 1405.35 2.12196 0.0930416 0
M  V30 14670 H 1407.61 0.942289 0.103899 0
M  V30 14671 H 1407.32 3.38118 0.96795 0
M  V30 14672 H 1407.19 2.73715 2.59538 0
M  V30 14673 H 1409.58 1.77408 2.35818 0
M  V30 14674 H 1409.66 2.45278 0.726118 0
M  V30 14675 H 1409.3 4.78516 1.70249 0
M  V30 14676 H 1409.23 4.07536 3.33499 0
M  V30 14677 H 1411.72 3.16344 2.06725 0
M  V30 14678 H 1412.04 6.79002 3.6902 0
M  V30 14679 H 1410.38 6.10313 3.3248 0
M  V30 14680 H 1413.57 3.96396 2.48973 0
M  V30 14681 H 1413.75 5.6176 3.23001 0
M  V30 14682 N 1407.15 -0.967221 1.24429 0
M  V30 14683 C 1408.08 -2.07966 1.06172 0
M  V30 14684 C 1409.06 -1.70081 -0.0254566 0
M  V30 14685 O 1410.25 -1.93682 0.141705 0
M  V30 14686 C 1407.38 -3.4085 0.666251 0
M  V30 14687 C 1406.33 -3.92692 1.70225 0
M  V30 14688 C 1405.66 -5.21925 1.16183 0
M  V30 14689 C 1406.96 -4.20478 3.09831 0
M  V30 14690 H 1408.65 -2.23497 1.99222 0
M  V30 14691 H 1406.2 -1.07398 0.959255 0
M  V30 14692 H 1408.15 -4.1811 0.52552 0
M  V30 14693 H 1406.87 -3.2522 -0.299939 0
M  V30 14694 H 1405.53 -3.17588 1.83121 0
M  V30 14695 H 1405.18 -5.02655 0.186237 0
M  V30 14696 H 1404.88 -5.57579 1.85416 0
M  V30 14697 H 1406.41 -6.01795 1.03323 0
M  V30 14698 H 1407.82 -4.88442 3.00162 0
M  V30 14699 H 1406.22 -4.67362 3.7642 0
M  V30 14700 H 1407.29 -3.27235 3.57834 0
M  V30 14701 N 1408.63 -1.05812 -1.16797 0
M  V30 14702 C 1409.85 -0.792518 -1.91661 0
M  V30 14703 C 1410.28 0.646598 -1.76637 0
M  V30 14704 O 1409.64 1.44998 -1.08836 0
M  V30 14705 C 1409.69 -1.18585 -3.40544 0
M  V30 14706 O 1408.79 -0.321716 -4.11143 0
M  V30 14707 H 1408.13 -0.290066 -0.597292 0
M  V30 14708 H 1410.66 -1.41263 -1.48007 0
M  V30 14709 H 1410.67 -1.1553 -3.91301 0
M  V30 14710 H 1409.35 -2.23413 -3.50798 0
M  V30 14711 H 1407.92 -0.413403 -3.70601 0
M  V30 14712 N 1410.11 1.33347 -0.840014 0
M  V30 14713 C 1411.07 2.27492 -0.279264 0
M  V30 14714 C 1412.07 1.51004 0.552669 0
M  V30 14715 O 1413.26 1.70305 0.366295 0
M  V30 14716 C 1410.39 3.35462 0.606466 0
M  V30 14717 H 1411.59 2.78601 -1.11001 0
M  V30 14718 H 1409.14 1.4377 -0.613187 0
M  V30 14719 H 1409.87 2.89596 1.45961 0
M  V30 14720 H 1409.66 3.92098 0.0111889 0
M  V30 14721 H 1411.15 4.05645 0.992052 0
M  V30 14722 N 1411.59 0.596556 1.45873 0
M  V30 14723 C 1412.83 0.0874583 2.02311 0
M  V30 14724 C 1413.16 -1.27781 1.46636 0
M  V30 14725 O 1412.42 -1.85393 0.62674 0
M  V30 14726 C 1412.71 -0.0135714 3.57397 0
M  V30 14727 C 1412.38 1.28591 4.32175 0
M  V30 14728 C 1411.04 1.6419 4.52322 0
M  V30 14729 C 1413.39 2.14523 4.75005 0
M  V30 14730 C 1410.72 2.85493 5.12553 0
M  V30 14731 C 1413.07 3.35065 5.36577 0
M  V30 14732 C 1411.74 3.70929 5.54949 0
M  V30 14733 H 1411.01 0.0320033 0.740309 0
M  V30 14734 H 1413.66 0.775967 1.75074 0
M  V30 14735 H 1411.96 -0.785287 3.8385 0
M  V30 14736 H 1413.66 -0.423456 3.98758 0
M  V30 14737 H 1410.25 0.99881 4.16799 0
M  V30 14738 H 1414.43 1.88321 4.59183 0
M  V30 14739 H 1409.69 3.134 5.24967 0
M  V30 14740 H 1413.86 4.01909 5.6872 0
M  V30 14741 H 1411.49 4.65011 6.01389 0
M  V30 14742 N 1413.06 -1.53996 0.335095 0
M  V30 14743 C 1414 -2.22258 -0.559809 0
M  V30 14744 C 1415.01 -1.22636 -1.07071 0
M  V30 14745 O 1416.2 -1.4904 -0.982312 0
M  V30 14746 C 1413.3 -2.88256 -1.78218 0
M  V30 14747 C 1412.47 -4.14118 -1.40801 0
M  V30 14748 C 1411.53 -4.63603 -2.48915 0
M  V30 14749 O 1410.56 -5.28015 -2.12576 0
M  V30 14750 N 1411.76 -4.3881 -3.80034 0
M  V30 14751 H 1414.52 -2.9969 0.0247521 0
M  V30 14752 H 1412.08 -1.61119 0.158826 0
M  V30 14753 H 1414.08 -3.1828 -2.4996 0
M  V30 14754 H 1412.65 -2.14461 -2.27431 0
M  V30 14755 H 1411.87 -3.90732 -0.521729 0
M  V30 14756 H 1413.15 -4.96005 -1.13388 0
M  V30 14757 H 1412.55 -3.87278 -4.12349 0
M  V30 14758 H 1411.11 -4.73461 -4.47971 0
M  V30 14759 N 1414.54 -0.0635198 -1.57472 0
M  V30 14760 C 1415.47 0.93602 -2.09216 0
M  V30 14761 C 1416.49 1.2668 -1.02255 0
M  V30 14762 O 1417.68 1.22543 -1.2979 0
M  V30 14763 C 1414.78 2.25417 -2.53062 0
M  V30 14764 C 1413.95 2.10347 -3.83501 0
M  V30 14765 C 1413.01 3.25394 -4.13528 0
M  V30 14766 O 1412.03 3.00751 -4.83257 0
M  V30 14767 N 1413.24 4.50243 -3.66417 0
M  V30 14768 H 1416 0.494288 -2.95596 0
M  V30 14769 H 1413.56 0.122416 -1.61437 0
M  V30 14770 H 1415.55 3.01272 -2.70217 0
M  V30 14771 H 1414.12 2.61116 -1.71864 0
M  V30 14772 H 1413.34 1.19009 -3.75807 0
M  V30 14773 H 1414.63 1.97519 -4.68896 0
M  V30 14774 H 1414.03 4.73152 -3.1007 0
M  V30 14775 H 1412.59 5.23152 -3.88787 0
M  V30 14776 N 1416.02 1.56195 0.209972 0
M  V30 14777 C 1417.27 1.7939 0.930796 0
M  V30 14778 C 1417.59 0.634038 1.84404 0
M  V30 14779 O 1416.86 -0.348467 1.92776 0
M  V30 14780 H 1415.44 0.661676 0.346689 0
M  V30 14781 H 1418.1 1.93665 0.219049 0
M  V30 14782 H 1417.2 2.71982 1.53075 0
M  V30 14783 N 1417.5 -0.477127 1.50204 0
M  V30 14784 C 1418.74 -1.22964 1.60891 0
M  V30 14785 C 1419.07 -1.9207 0.306464 0
M  V30 14786 O 1418.33 -1.82472 -0.707272 0
M  V30 14787 C 1418.63 -2.30126 2.73453 0
M  V30 14788 C 1418.29 -1.78314 4.14143 0
M  V30 14789 C 1416.95 -1.63904 4.52425 0
M  V30 14790 C 1419.31 -1.3981 5.02098 0
M  V30 14791 C 1416.63 -1.09404 5.76409 0
M  V30 14792 C 1418.99 -0.867538 6.26623 0
M  V30 14793 C 1417.65 -0.710022 6.63713 0
M  V30 14794 H 1416.92 -0.449959 0.588743 0
M  V30 14795 H 1419.57 -0.526592 1.84118 0
M  V30 14796 H 1417.87 -3.06315 2.44291 0
M  V30 14797 H 1419.57 -2.88099 2.78927 0
M  V30 14798 H 1416.16 -1.90496 3.83939 0
M  V30 14799 H 1420.34 -1.49779 4.73159 0
M  V30 14800 H 1415.6 -0.959413 6.03825 0
M  V30 14801 H 1419.77 -0.560496 6.94141 0
M  V30 14802 H 1417.4 -0.285555 7.59663 0
M  V30 14803 N 1418.98 -1.3968 -0.729882 0
M  V30 14804 C 1420.22 -1.37182 -1.48954 0
M  V30 14805 C 1420.55 0.0305728 -1.94476 0
M  V30 14806 O 1419.81 1.0124 -1.67478 0
M  V30 14807 C 1420.11 -2.29499 -2.7398 0
M  V30 14808 C 1419.77 -3.77034 -2.47298 0
M  V30 14809 C 1418.43 -4.17232 -2.39731 0
M  V30 14810 C 1420.79 -4.70325 -2.24597 0
M  V30 14811 C 1418.11 -5.48777 -2.07511 0
M  V30 14812 C 1420.47 -6.02153 -1.93893 0
M  V30 14813 C 1419.13 -6.41409 -1.84798 0
M  V30 14814 H 1418.4 -0.501985 -0.545061 0
M  V30 14815 H 1421.05 -1.72226 -0.837294 0
M  V30 14816 H 1419.35 -1.87592 -3.43972 0
M  V30 14817 H 1421.05 -2.24857 -3.32024 0
M  V30 14818 H 1417.64 -3.45177 -2.54069 0
M  V30 14819 H 1421.82 -4.40097 -2.29408 0
M  V30 14820 H 1417.08 -5.78109 -1.98996 0
M  V30 14821 H 1421.25 -6.73966 -1.75337 0
M  V30 14822 H 1418.88 -7.43258 -1.59598 0
M  V30 14823 N 1420.45 0.960609 -1.2494 0
M  V30 14824 C 1421.87 1.23057 -1.01633 0
M  V30 14825 C 1422.07 1.99676 0.270527 0
M  V30 14826 O 1421.13 2.32503 0.984823 0
M  V30 14827 C 1422.44 2.01078 -2.2358 0
M  V30 14828 C 1423.99 2.14144 -2.28279 0
M  V30 14829 C 1424.46 2.95563 -3.49867 0
M  V30 14830 N 1425.95 3.03143 -3.50227 0
M  V30 14831 C 1426.69 3.66518 -4.40967 0
M  V30 14832 N 1426.18 4.31553 -5.41972 0
M  V30 14833 N 1427.98 3.636 -4.28663 0
M  V30 14834 H 1420.13 0.447876 -2.07624 0
M  V30 14835 H 1422.39 0.260581 -0.911483 0
M  V30 14836 H 1422.1 1.52172 -3.17075 0
M  V30 14837 H 1421.97 3.01797 -2.2627 0
M  V30 14838 H 1424.36 2.6225 -1.35311 0
M  V30 14839 H 1424.44 1.1275 -2.29611 0
M  V30 14840 H 1424.08 2.48149 -4.43153 0
M  V30 14841 H 1424.01 3.9717 -3.45779 0
M  V30 14842 H 1426.5 2.56888 -2.77159 0
M  V30 14843 H 1426.82 4.7775 -6.07433 0
M  V30 14844 H 1425.16 4.302 -5.45851 0
M  V30 14845 H 1428.35 3.11973 -3.48985 0
M  V30 14846 H 1428.53 4.12706 -4.99578 0
M  V30 14847 N 1421.93 1.0643 1.16234 0
M  V30 14848 C 1422.88 0.670457 2.22728 0
M  V30 14849 C 1423.87 -0.31428 1.66459 0
M  V30 14850 O 1425.08 -0.178996 1.79108 0
M  V30 14851 H 1421.46 0.198692 0.725276 0
M  V30 14852 H 1423.43 1.57846 2.53233 0
M  V30 14853 C 1422.18 0.074379 3.4762 0
M  V30 14854 H 1421.5 0.823227 3.91233 0
M  V30 14855 H 1422.94 -0.163652 4.23684 0
M  V30 14856 C 1421.4 -1.18242 3.15469 0
M  V30 14857 O 1421.93 -2.27018 3.314 0
M  V30 14858 N 1420.13 -1.08493 2.69588 0
M  V30 14859 H 1419.68 -0.199714 2.56825 0
M  V30 14860 H 1419.64 -1.92666 2.48449 0
M  V30 14861 N 1423.41 -1.329 0.847073 0
M  V30 14862 C 1424.36 -2.29044 0.284199 0
M  V30 14863 C 1425.33 -1.54706 -0.604591 0
M  V30 14864 O 1426.51 -1.82966 -0.541116 0
M  V30 14865 C 1423.65 -3.4104 -0.527822 0
M  V30 14866 C 1422.77 -4.30273 0.385907 0
M  V30 14867 C 1421.9 -5.29391 -0.438009 0
M  V30 14868 C 1420.94 -6.10265 0.473596 0
M  V30 14869 N 1420.08 -7.01403 -0.312684 0
M  V30 14870 H 1424.92 -2.76582 1.10935 0
M  V30 14871 H 1422.45 -1.36085 0.558508 0
M  V30 14872 H 1424.41 -4.04686 -1.01417 0
M  V30 14873 H 1423.04 -2.94673 -1.31787 0
M  V30 14874 H 1422.09 -3.67275 0.99061 0
M  V30 14875 H 1423.41 -4.86837 1.08585 0
M  V30 14876 H 1422.56 -5.98604 -0.987842 0
M  V30 14877 H 1421.3 -4.73424 -1.17135 0
M  V30 14878 H 1420.3 -5.39963 1.03537 0
M  V30 14879 H 1421.53 -6.68316 1.20543 0
M  V30 14880 H 1419.47 -6.47875 -1.02926 0
M  V30 14881 H 1419.39 -7.55286 0.328376 0
M  V30 14882 H 1420.66 -7.74912 -0.844489 0
M  V30 14883 N 1424.89 -0.604284 -1.45555 0
M  V30 14884 C 1426.14 -0.0957836 -2.01472 0
M  V30 14885 C 1426.45 1.28016 -1.47889 0
M  V30 14886 O 1427.66 1.88121 -1.95762 0
M  V30 14887 C 1426.11 -0.120566 -3.59698 0
M  V30 14888 C 1425.72 -1.49616 -4.22278 0
M  V30 14889 C 1427.46 0.332865 -4.23193 0
M  V30 14890 C 1425.37 -1.4775 -5.72646 0
M  V30 14891 H 1424.3 -0.0320399 -0.753319 0
M  V30 14892 H 1426.95 -0.759125 -1.67061 0
M  V30 14893 H 1425.33 0.609365 -3.91283 0
M  V30 14894 H 1426.51 -2.24753 -4.02272 0
M  V30 14895 H 1424.82 -1.89141 -3.70965 0
M  V30 14896 H 1427.42 0.365951 -5.33446 0
M  V30 14897 H 1427.76 1.35487 -3.93635 0
M  V30 14898 H 1428.3 -0.343692 -3.96313 0
M  V30 14899 H 1425.04 -2.47701 -6.06898 0
M  V30 14900 H 1424.56 -0.768659 -5.94854 0
M  V30 14901 H 1426.23 -1.19971 -6.3578 0
M  V30 14902 N 1426.37 1.53816 -0.343257 0
M  V30 14903 C 1427.3 2.27951 0.506005 0
M  V30 14904 C 1428.28 1.29502 1.10287 0
M  V30 14905 O 1429.46 1.58344 1.12432 0
M  V30 14906 C 1426.59 3.0521 1.65723 0
M  V30 14907 C 1425.55 4.11161 1.18871 0
M  V30 14908 C 1424.87 4.76373 2.42843 0
M  V30 14909 C 1426.17 5.21498 0.289403 0
M  V30 14910 H 1427.87 2.99189 -0.112435 0
M  V30 14911 H 1425.41 1.43893 -0.055516 0
M  V30 14912 H 1427.37 3.55811 2.2578 0
M  V30 14913 H 1426.09 2.31624 2.30256 0
M  V30 14914 H 1424.75 3.61473 0.610962 0
M  V30 14915 H 1424.4 3.99381 3.05784 0
M  V30 14916 H 1424.1 5.47955 2.12177 0
M  V30 14917 H 1425.62 5.29758 3.03627 0
M  V30 14918 H 1427.03 5.67736 0.796808 0
M  V30 14919 H 1425.43 6.00054 0.0746366 0
M  V30 14920 H 1426.5 4.80185 -0.674543 0
M  V30 14921 N 1427.84 0.0718701 1.57436 0
M  V30 14922 C 1429.09 -0.598116 1.93779 0
M  V30 14923 C 1429.42 -1.69258 0.952131 0
M  V30 14924 O 1428.7 -1.94491 -0.0186426 0
M  V30 14925 C 1428.98 -1.17499 3.40391 0
M  V30 14926 C 1428.83 -0.0871719 4.49716 0
M  V30 14927 C 1430.15 -2.08047 3.8782 0
M  V30 14928 H 1427.27 -0.215954 0.704651 0
M  V30 14929 H 1429.91 0.137854 1.89499 0
M  V30 14930 H 1428.06 -1.80221 3.44169 0
M  V30 14931 H 1429.74 0.545906 4.58058 0
M  V30 14932 H 1427.98 0.582213 4.29875 0
M  V30 14933 H 1428.65 -0.531202 5.49438 0
M  V30 14934 H 1431.13 -1.5526 3.86049 0
M  V30 14935 H 1430 -2.45345 4.91016 0
M  V30 14936 H 1430.26 -2.98879 3.25766 0
M  V30 14937 N 1429.32 -1.56304 -0.201686 0
M  V30 14938 C 1430.57 -1.79433 -0.921241 0
M  V30 14939 C 1430.88 -0.643943 -1.84696 0
M  V30 14940 O 1432.09 -0.759359 -2.60665 0
M  V30 14941 C 1430.55 -3.17835 -1.68846 0
M  V30 14942 C 1430.15 -4.40655 -0.807892 0
M  V30 14943 C 1431.9 -3.50277 -2.39805 0
M  V30 14944 C 1429.81 -5.7008 -1.5736 0
M  V30 14945 H 1428.74 -0.669029 -0.34773 0
M  V30 14946 H 1431.39 -1.82667 -0.174657 0
M  V30 14947 H 1429.77 -3.08832 -2.47869 0
M  V30 14948 H 1430.94 -4.60765 -0.0567923 0
M  V30 14949 H 1429.26 -4.15873 -0.209465 0
M  V30 14950 H 1431.85 -4.44207 -2.97631 0
M  V30 14951 H 1432.2 -2.7371 -3.1367 0
M  V30 14952 H 1432.73 -3.60698 -1.67754 0
M  V30 14953 H 1429.47 -6.49595 -0.877855 0
M  V30 14954 H 1428.99 -5.53999 -2.2988 0
M  V30 14955 H 1430.67 -6.10964 -2.12912 0
M  V30 14956 N 1430.8 0.469154 -1.50455 0
M  V30 14957 C 1431.76 1.5493 -1.68906 0
M  V30 14958 C 1432.76 1.50744 -0.559721 0
M  V30 14959 O 1433.95 1.5333 -0.826781 0
M  V30 14960 C 1431.09 2.94556 -1.71609 0
M  V30 14961 H 1432.28 1.39887 -2.65276 0
M  V30 14962 H 1429.83 0.695667 -1.39965 0
M  V30 14963 H 1430.57 3.15041 -0.769382 0
M  V30 14964 H 1430.35 2.99002 -2.53654 0
M  V30 14965 H 1431.84 3.72973 -1.87831 0
M  V30 14966 N 1432.28 1.40065 0.722464 0
M  V30 14967 C 1433.53 1.37277 1.47776 0
M  V30 14968 C 1433.84 -0.0242852 1.95585 0
M  V30 14969 O 1435.05 -0.174769 2.70937 0
M  V30 14970 C 1433.5 2.41233 2.67085 0
M  V30 14971 C 1433.11 3.86716 2.26174 0
M  V30 14972 C 1434.85 2.47541 3.44853 0
M  V30 14973 C 1432.76 4.82284 3.42281 0
M  V30 14974 H 1431.69 0.510405 0.55498 0
M  V30 14975 H 1434.34 1.6577 0.786928 0
M  V30 14976 H 1432.72 2.0583 3.38305 0
M  V30 14977 H 1433.9 4.31227 1.6242 0
M  V30 14978 H 1432.21 3.83819 1.61468 0
M  V30 14979 H 1434.81 3.16131 4.31237 0
M  V30 14980 H 1435.15 1.50379 3.8819 0
M  V30 14981 H 1435.69 2.81901 2.80672 0
M  V30 14982 H 1432.43 5.80754 3.03982 0
M  V30 14983 H 1431.95 4.42443 4.04975 0
M  V30 14984 H 1433.62 5.0178 4.08443 0
M  V30 14985 N 1433.76 -0.95397 1.25448 0
M  V30 14986 C 1435 -1.70118 1.10399 0
M  V30 14987 C 1435.34 -1.90945 -0.354093 0
M  V30 14988 O 1434.61 -1.48088 -1.26096 0
M  V30 14989 C 1434.89 -3.08371 1.85955 0
M  V30 14990 C 1434.75 -2.9495 3.39595 0
M  V30 14991 C 1436.07 -4.08273 1.64321 0
M  V30 14992 H 1433.19 -0.617424 0.402438 0
M  V30 14993 H 1435.83 -1.10884 1.54288 0
M  V30 14994 H 1433.98 -3.58936 1.48651 0
M  V30 14995 H 1435.65 -2.51705 3.86578 0
M  V30 14996 H 1433.89 -2.30853 3.67273 0
M  V30 14997 H 1434.56 -3.92952 3.87676 0
M  V30 14998 H 1437.04 -3.6662 1.96796 0
M  V30 14999 H 1435.92 -5.03048 2.19622 0
M  V30 15000 H 1436.18 -4.38217 0.584685 0
M  V30 15001 N 1435.24 -1.07045 -1.15668 0
M  V30 15002 C 1436.48 -0.791735 -1.86381 0
M  V30 15003 C 1436.81 0.682084 -1.82148 0
M  V30 15004 O 1436.07 1.51617 -1.23737 0
M  V30 15005 C 1436.36 -1.24127 -3.35153 0
M  V30 15006 C 1436.03 -2.72051 -3.59582 0
M  V30 15007 C 1434.69 -3.12455 -3.65958 0
M  V30 15008 C 1437.04 -3.67547 -3.69538 0
M  V30 15009 C 1434.37 -4.4718 -3.79799 0
M  V30 15010 C 1436.72 -5.02029 -3.84902 0
M  V30 15011 C 1435.39 -5.42059 -3.89523 0
M  V30 15012 H 1434.66 -0.289717 -0.682016 0
M  V30 15013 H 1437.31 -1.34091 -1.36718 0
M  V30 15014 H 1435.61 -0.611428 -3.87 0
M  V30 15015 H 1437.31 -1.00256 -3.88265 0
M  V30 15016 H 1433.9 -2.39771 -3.55257 0
M  V30 15017 H 1438.08 -3.3746 -3.63915 0
M  V30 15018 H 1433.34 -4.77668 -3.81632 0
M  V30 15019 H 1437.51 -5.75902 -3.91548 0
M  V30 15020 H 1435.14 -6.46455 -4 0
M  V30 15021 N 1436.71 1.32449 -0.85411 0
M  V30 15022 C 1437.65 2.2777 -0.255605 0
M  V30 15023 C 1438.66 1.52407 0.572355 0
M  V30 15024 O 1439.85 1.74031 0.396935 0
M  V30 15025 C 1436.95 3.32461 0.657496 0
M  V30 15026 C 1436.12 4.37193 -0.134492 0
M  V30 15027 C 1435.18 5.21465 0.704288 0
M  V30 15028 O 1434.21 5.69033 0.138001 0
M  V30 15029 N 1435.41 5.44254 2.01911 0
M  V30 15030 H 1438.17 2.79769 -1.07468 0
M  V30 15031 H 1435.73 1.45304 -0.714038 0
M  V30 15032 H 1437.73 3.85748 1.22396 0
M  V30 15033 H 1436.3 2.80625 1.37726 0
M  V30 15034 H 1435.52 3.84198 -0.882378 0
M  V30 15035 H 1436.8 5.04256 -0.678508 0
M  V30 15036 H 1436.2 5.07336 2.50252 0
M  V30 15037 H 1434.76 6.00538 2.53371 0
M  V30 15038 N 1438.19 0.611994 1.45232 0
M  V30 15039 C 1439.44 0.109073 2.02506 0
M  V30 15040 C 1439.77 -1.25876 1.47881 0
M  V30 15041 O 1439.05 -1.83131 0.65524 0
M  V30 15042 C 1439.33 0.0749288 3.60022 0
M  V30 15043 C 1439.18 1.47374 4.24972 0
M  V30 15044 C 1440.5 -0.610602 4.35844 0
M  V30 15045 H 1437.62 0.0411101 0.735853 0
M  V30 15046 H 1440.26 0.78481 1.73034 0
M  V30 15047 H 1438.41 -0.500511 3.85262 0
M  V30 15048 H 1440.08 2.0966 4.10902 0
M  V30 15049 H 1438.33 2.03319 3.83202 0
M  V30 15050 H 1439 1.40206 5.33897 0
M  V30 15051 H 1441.47 -0.121445 4.15923 0
M  V30 15052 H 1440.35 -0.603614 5.45571 0
M  V30 15053 H 1440.61 -1.6775 4.09038 0
M  V30 15054 N 1439.67 -1.53632 0.351409 0
M  V30 15055 C 1440.91 -2.02951 -0.242935 0
M  V30 15056 C 1441.27 -1.23346 -1.47138 0
M  V30 15057 O 1442.47 -1.62602 -2.14042 0
M  V30 15058 C 1440.75 -3.53272 -0.541633 0
M  V30 15059 S 1442.3 -4.24485 -1.11167 0
M  V30 15060 H 1439.12 -0.707367 -0.071784 0
M  V30 15061 H 1441.72 -1.89234 0.490993 0
M  V30 15062 H 1440.43 -4.08817 0.360137 0
M  V30 15063 H 1439.96 -3.71124 -1.30502 0
M  V30 15064 H 1441.97 -4.34469 -2.39689 0
M  V30 15065 N 1441.15 -0.0802183 -1.57396 0
M  V30 15066 C 1442.4 0.586573 -1.92982 0
M  V30 15067 C 1442.71 1.70256 -0.962918 0
M  V30 15068 O 1443.92 2.4295 -1.21193 0
M  V30 15069 C 1442.37 1.09475 -3.42846 0
M  V30 15070 C 1441.98 0.0093098 -4.47999 0
M  V30 15071 C 1443.72 1.73512 -3.87419 0
M  V30 15072 C 1441.63 0.532002 -5.89002 0
M  V30 15073 H 1440.56 0.222878 -0.720306 0
M  V30 15074 H 1443.21 -0.153816 -1.82854 0
M  V30 15075 H 1441.59 1.88836 -3.48076 0
M  V30 15076 H 1442.77 -0.765609 -4.54395 0
M  V30 15077 H 1441.08 -0.535345 -4.12944 0
M  V30 15078 H 1443.68 2.13665 -4.90154 0
M  V30 15079 H 1444.02 2.59845 -3.25248 0
M  V30 15080 H 1444.56 1.00758 -3.84828 0
M  V30 15081 H 1441.29 -0.294364 -6.54839 0
M  V30 15082 H 1440.81 1.27425 -5.86108 0
M  V30 15083 H 1442.49 1.00573 -6.39135 0
M  V30 15084 N 1442.63 1.56409 0.193394 0
M  V30 15085 C 1443.87 1.80367 0.911717 0
M  V30 15086 C 1444.19 0.653561 1.83721 0
M  V30 15087 O 1443.46 -0.328001 1.93135 0
M  V30 15088 H 1442.04 0.665316 0.339652 0
M  V30 15089 H 1444.71 1.93887 0.198496 0
M  V30 15090 H 1443.8 2.7359 1.50182 0
M  V30 15091 N 1444.1 -0.461169 1.50702 0
M  V30 15092 C 1445.34 -1.22225 1.6383 0
M  V30 15093 C 1445.71 -1.8904 0.335858 0
M  V30 15094 O 1446.91 -2.66607 0.342674 0
M  V30 15095 C 1445.18 -2.2305 2.79256 0
M  V30 15096 S 1446.74 -3.07964 3.12576 0
M  V30 15097 H 1443.56 -0.41483 0.57744 0
M  V30 15098 H 1446.16 -0.517625 1.88523 0
M  V30 15099 H 1444.86 -1.72562 3.72358 0
M  V30 15100 H 1444.39 -2.98126 2.56679 0
M  V30 15101 H 1446.41 -4.24358 2.57167 0
M  V30 15102 N 1445.58 -1.40446 -0.715026 0
M  V30 15103 C 1446.83 -1.38754 -1.47491 0
M  V30 15104 C 1447.16 0.0099443 -1.94497 0
M  V30 15105 O 1446.41 0.99458 -1.68543 0
M  V30 15106 C 1446.71 -2.32392 -2.7153 0
M  V30 15107 C 1446.38 -3.79635 -2.43286 0
M  V30 15108 C 1445.04 -4.19751 -2.35293 0
M  V30 15109 C 1447.39 -4.72681 -2.19596 0
M  V30 15110 C 1444.72 -5.50947 -2.01679 0
M  V30 15111 C 1447.07 -6.04176 -1.87495 0
M  V30 15112 C 1445.73 -6.43333 -1.77985 0
M  V30 15113 H 1445 -0.507738 -0.539706 0
M  V30 15114 H 1447.65 -1.73104 -0.81898 0
M  V30 15115 H 1445.96 -1.91229 -3.41963 0
M  V30 15116 H 1447.65 -2.28366 -3.29621 0
M  V30 15117 H 1444.24 -3.47852 -2.50393 0
M  V30 15118 H 1448.43 -4.42506 -2.24727 0
M  V30 15119 H 1443.68 -5.80187 -1.92854 0
M  V30 15120 H 1447.86 -6.75788 -1.68179 0
M  V30 15121 H 1445.48 -7.44909 -1.51706 0
M  V30 15122 N 1447.06 0.947303 -1.25952 0
M  V30 15123 C 1447.99 2.0625 -1.09467 0
M  V30 15124 C 1448.97 1.701 -0.00160498 0
M  V30 15125 O 1450.16 1.93432 -0.172501 0
M  V30 15126 C 1447.29 3.39746 -0.720392 0
M  V30 15127 C 1446.24 3.89935 -1.76451 0
M  V30 15128 C 1445.57 5.2001 -1.24472 0
M  V30 15129 C 1446.87 4.15496 -3.16481 0
M  V30 15130 H 1448.56 2.203 -2.02752 0
M  V30 15131 H 1446.11 1.05858 -0.97622 0
M  V30 15132 H 1448.06 4.17221 -0.591972 0
M  V30 15133 H 1446.78 3.25656 0.248161 0
M  V30 15134 H 1445.44 3.14635 -1.8815 0
M  V30 15135 H 1445.09 5.02295 -0.266182 0
M  V30 15136 H 1444.79 5.54559 -1.94263 0
M  V30 15137 H 1446.31 6.00075 -1.12884 0
M  V30 15138 H 1447.73 4.83605 -3.07894 0
M  V30 15139 H 1446.12 4.61315 -3.83808 0
M  V30 15140 H 1447.19 3.21501 -3.62995 0
M  V30 15141 N 1448.54 1.07657 1.15099 0
M  V30 15142 C 1449.78 0.811006 1.87622 0
M  V30 15143 C 1450.14 -0.651144 1.80621 0
M  V30 15144 O 1451.34 -1.03188 2.48205 0
M  V30 15145 C 1449.61 1.30906 3.32563 0
M  V30 15146 S 1451.17 1.17465 4.22785 0
M  V30 15147 H 1447.99 0.293808 0.647455 0
M  V30 15148 H 1450.59 1.3763 1.38846 0
M  V30 15149 H 1449.3 2.36784 3.35204 0
M  V30 15150 H 1448.83 0.739107 3.86395 0
M  V30 15151 H 1450.84 0.114115 4.96069 0
M  V30 15152 N 1450.02 -1.31994 0.861122 0
M  V30 15153 C 1451.25 -2.00919 0.481167 0
M  V30 15154 C 1451.65 -1.64851 -0.928488 0
M  V30 15155 O 1451 -0.86916 -1.61837 0
M  V30 15156 C 1451.06 -3.55297 0.548091 0
M  V30 15157 C 1450.72 -4.14813 1.91779 0
M  V30 15158 C 1451.72 -4.32567 2.88412 0
M  V30 15159 C 1449.41 -4.50742 2.21669 0
M  V30 15160 C 1451.4 -4.85428 4.13084 0
M  V30 15161 C 1449.09 -5.03306 3.46593 0
M  V30 15162 C 1450.08 -5.20598 4.42116 0
M  V30 15163 O 1449.77 -5.72037 5.64827 0
M  V30 15164 H 1449.5 -0.649663 0.186853 0
M  V30 15165 H 1452.06 -1.69401 1.16157 0
M  V30 15166 H 1450.29 -3.86237 -0.18919 0
M  V30 15167 H 1451.98 -4.05488 0.182821 0
M  V30 15168 H 1452.74 -4.05137 2.66625 0
M  V30 15169 H 1448.62 -4.36563 1.48099 0
M  V30 15170 H 1452.17 -4.98841 4.87651 0
M  V30 15171 H 1448.06 -5.30169 3.68227 0
M  V30 15172 H 1448.83 -5.9042 5.66875 0
M  V30 15173 N 1451.49 -0.619688 -1.44906 0
M  V30 15174 C 1452.73 -0.122796 -2.04031 0
M  V30 15175 C 1453.1 1.2279 -1.47603 0
M  V30 15176 O 1454.3 1.81623 -1.98158 0
M  V30 15177 C 1452.57 -0.0968883 -3.57269 0
M  V30 15178 S 1454.13 0.33705 -4.37504 0
M  V30 15179 H 1450.95 -0.0554816 -0.708832 0
M  V30 15180 H 1453.55 -0.82051 -1.77448 0
M  V30 15181 H 1452.25 -1.08324 -3.95846 0
M  V30 15182 H 1451.78 0.622437 -3.88445 0
M  V30 15183 H 1453.8 1.58388 -4.70242 0
M  V30 15184 N 1452.97 1.53444 -0.359552 0
M  V30 15185 C 1454.38 1.86308 0.120955 0
M  V30 15186 C 1454.73 1.28033 1.48667 0
M  V30 15187 O 1453.86 0.600041 2.07915 0
M  V30 15188 C 1454.45 3.38044 0.226255 0
M  V30 15189 C 1453.01 3.70727 0.65101 0
M  V30 15190 C 1452.16 2.76538 -0.205482 0
M  V30 15191 H 1455.11 1.47778 -0.578569 0
M  V30 15192 H 1455.13 3.65699 1.05092 0
M  V30 15193 H 1454.64 3.80428 -0.767874 0
M  V30 15194 H 1452.75 3.33897 1.65359 0
M  V30 15195 H 1452.86 4.77168 0.429802 0
M  V30 15196 H 1451.22 2.52622 0.3247 0
M  V30 15197 H 1452.01 3.21754 -1.19704 0
M  V30 15198 N 1454.45 0.0885642 1.57351 0
M  V30 15199 C 1455.7 -0.575536 1.93732 0
M  V30 15200 C 1456.02 -1.69126 0.970644 0
M  V30 15201 O 1455.29 -1.95888 0.0215907 0
M  V30 15202 H 1453.87 -0.215592 0.715213 0
M  V30 15203 H 1456.53 0.150362 1.94319 0
M  V30 15204 H 1455.63 -0.989979 2.95983 0
M  V30 15205 N 1455.93 -1.56509 -0.185096 0
M  V30 15206 C 1456.86 -1.90414 -1.25768 0
M  V30 15207 C 1457.84 -0.765349 -1.43461 0
M  V30 15208 O 1459.02 -1.01733 -1.5869 0
M  V30 15209 C 1456.15 -2.14307 -2.62279 0
M  V30 15210 C 1455.2 -3.37005 -2.61399 0
M  V30 15211 S 1456.03 -4.91816 -2.11843 0
M  V30 15212 C 1457.19 -5.18787 -3.50158 0
M  V30 15213 H 1457.42 -2.81092 -0.968212 0
M  V30 15214 H 1454.95 -1.49418 -0.389046 0
M  V30 15215 H 1456.91 -2.28754 -3.40855 0
M  V30 15216 H 1455.57 -1.24361 -2.88432 0
M  V30 15217 H 1454.76 -3.5088 -3.618 0
M  V30 15218 H 1454.37 -3.21603 -1.90912 0
M  V30 15219 H 1456.66 -5.0992 -4.4608 0
M  V30 15220 H 1457.6 -6.20491 -3.41169 0
M  V30 15221 H 1458.01 -4.46394 -3.45533 0
M  V30 15222 N 1457.41 0.45317 -1.50944 0
M  V30 15223 C 1458.82 1.03354 -1.55482 0
M  V30 15224 C 1459.17 1.92701 -0.368873 0
M  V30 15225 O 1458.29 2.10153 0.516208 0
M  V30 15226 C 1458.89 1.88118 -2.81775 0
M  V30 15227 C 1457.45 2.41232 -2.88936 0
M  V30 15228 C 1456.59 1.20032 -2.49975 0
M  V30 15229 H 1459.55 0.235059 -1.5695 0
M  V30 15230 H 1459.57 2.73394 -2.64643 0
M  V30 15231 H 1459.08 1.23064 -3.68072 0
M  V30 15232 H 1457.18 3.09788 -2.07032 0
M  V30 15233 H 1457.29 2.75113 -3.92237 0
M  V30 15234 H 1455.66 1.54072 -2.02815 0
M  V30 15235 H 1456.44 0.56612 -3.386 0
M  V30 15236 N 1458.88 1.40823 0.707568 0
M  V30 15237 C 1459.83 1.4191 1.84294 0
M  V30 15238 C 1460.83 0.298592 1.66748 0
M  V30 15239 O 1462.03 0.47003 1.73755 0
M  V30 15240 H 1458.41 0.44376 0.607109 0
M  V30 15241 H 1460.38 2.37623 1.80494 0
M  V30 15242 C 1459.13 1.30643 3.22223 0
M  V30 15243 H 1458.45 2.16145 3.36335 0
M  V30 15244 H 1459.89 1.35463 4.01778 0
M  V30 15245 C 1458.35 0.0174867 3.36895 0
M  V30 15246 O 1458.88 -0.942398 3.90489 0
M  V30 15247 N 1457.09 -0.0546572 2.90549 0
M  V30 15248 H 1456.63 0.727204 2.47122 0
M  V30 15249 H 1456.59 -0.916521 3.00744 0
M  V30 15250 N 1460.36 -0.94061 1.26453 0
M  V30 15251 C 1461.61 -1.68132 1.1142 0
M  V30 15252 C 1461.92 -1.92587 -0.342006 0
M  V30 15253 O 1463.13 -2.64489 -0.613018 0
M  V30 15254 C 1461.59 -3.02758 1.94591 0
M  V30 15255 C 1461.19 -2.86049 3.4479 0
M  V30 15256 C 1462.94 -3.80516 1.88169 0
M  V30 15257 C 1460.85 -4.1615 4.20206 0
M  V30 15258 H 1459.78 -0.630591 0.413366 0
M  V30 15259 H 1462.43 -1.04602 1.50767 0
M  V30 15260 H 1460.81 -3.67272 1.48078 0
M  V30 15261 H 1461.98 -2.3038 3.99076 0
M  V30 15262 H 1460.3 -2.21732 3.52454 0
M  V30 15263 H 1462.89 -4.76904 2.41799 0
M  V30 15264 H 1463.24 -4.07477 0.852531 0
M  V30 15265 H 1463.77 -3.22776 2.32509 0
M  V30 15266 H 1460.51 -3.94373 5.23593 0
M  V30 15267 H 1460.03 -4.71531 3.707 0
M  V30 15268 H 1461.71 -4.84602 4.28684 0
M  V30 15269 N 1461.84 -1.08266 -1.14527 0
M  V30 15270 C 1463.09 -0.811459 -1.85531 0
M  V30 15271 C 1463.42 0.662726 -1.82861 0
M  V30 15272 O 1462.67 1.50296 -1.25338 0
M  V30 15273 C 1462.97 -1.27675 -3.33817 0
M  V30 15274 C 1462.64 -2.7585 -3.56676 0
M  V30 15275 C 1461.3 -3.16319 -3.62623 0
M  V30 15276 C 1463.65 -3.71446 -3.65619 0
M  V30 15277 C 1460.98 -4.51183 -3.75035 0
M  V30 15278 C 1463.33 -5.06083 -3.79556 0
M  V30 15279 C 1461.99 -5.4616 -3.83752 0
M  V30 15280 H 1461.26 -0.296934 -0.678904 0
M  V30 15281 H 1463.91 -1.35533 -1.35288 0
M  V30 15282 H 1462.22 -0.65244 -3.86329 0
M  V30 15283 H 1463.91 -1.04369 -3.8718 0
M  V30 15284 H 1460.5 -2.43526 -3.52694 0
M  V30 15285 H 1464.69 -3.41301 -3.60316 0
M  V30 15286 H 1459.94 -4.81689 -3.76545 0
M  V30 15287 H 1464.12 -5.80022 -3.85418 0
M  V30 15288 H 1461.74 -6.50661 -3.93121 0
M  V30 15289 N 1463.32 1.31536 -0.86811 0
M  V30 15290 C 1464.27 2.30504 -0.311581 0
M  V30 15291 C 1465.26 1.59439 0.572332 0
M  V30 15292 O 1466.47 1.74059 0.458639 0
M  V30 15293 H 1462.84 0.747508 -0.0820745 0
M  V30 15294 H 1464.81 2.74919 -1.16026 0
M  V30 15295 C 1463.56 3.44459 0.473622 0
M  V30 15296 H 1462.89 3.99313 -0.197259 0
M  V30 15297 H 1464.33 4.15829 0.828393 0
M  V30 15298 C 1462.78 2.92929 1.66416 0
M  V30 15299 O 1463.31 2.91543 2.76344 0
M  V30 15300 N 1461.52 2.49154 1.49568 0
M  V30 15301 H 1461.07 2.50481 0.601408 0
M  V30 15302 H 1461.03 2.15032 2.29366 0
M  V30 15303 N 1464.8 0.627364 1.44575 0
M  V30 15304 C 1466.04 0.130352 2.0208 0
M  V30 15305 C 1466.37 -1.24642 1.49314 0
M  V30 15306 O 1465.63 -1.84022 0.665923 0
M  V30 15307 C 1465.93 0.0622409 3.57346 0
M  V30 15308 C 1465.59 1.37729 4.2935 0
M  V30 15309 C 1464.25 1.73747 4.48737 0
M  V30 15310 C 1466.61 2.2455 4.70347 0
M  V30 15311 C 1463.93 2.96301 5.06382 0
M  V30 15312 C 1466.29 3.46371 5.29349 0
M  V30 15313 C 1464.95 3.82616 5.46956 0
M  V30 15314 H 1464.22 0.0476991 0.739463 0
M  V30 15315 H 1466.87 0.812928 1.73389 0
M  V30 15316 H 1465.17 -0.70369 3.85429 0
M  V30 15317 H 1466.87 -0.338778 3.99566 0
M  V30 15318 H 1463.46 1.08699 4.14587 0
M  V30 15319 H 1467.64 1.98019 4.55085 0
M  V30 15320 H 1462.9 3.24465 5.18201 0
M  V30 15321 H 1467.07 4.13882 5.60067 0
M  V30 15322 H 1464.7 4.77663 5.9139 0
M  V30 15323 N 1466.28 -1.53251 0.367684 0
M  V30 15324 C 1467.21 -2.22163 -0.521418 0
M  V30 15325 C 1468.19 -1.21433 -1.08133 0
M  V30 15326 O 1469.37 -1.50343 -1.13706 0
M  V30 15327 C 1466.5 -2.91799 -1.71962 0
M  V30 15328 C 1465.54 -4.0662 -1.28696 0
M  V30 15329 S 1466.38 -5.34733 -0.286505 0
M  V30 15330 C 1467.53 -6.07882 -1.49099 0
M  V30 15331 H 1467.77 -2.97231 0.0638317 0
M  V30 15332 H 1465.3 -1.53652 0.151795 0
M  V30 15333 H 1467.26 -3.32533 -2.40691 0
M  V30 15334 H 1465.92 -2.16451 -2.27613 0
M  V30 15335 H 1465.11 -4.54366 -2.181 0
M  V30 15336 H 1464.71 -3.67787 -0.67887 0
M  V30 15337 H 1467 -6.32741 -2.42167 0
M  V30 15338 H 1467.95 -7.00199 -1.05487 0
M  V30 15339 H 1468.36 -5.38357 -1.698 0
M  V30 15340 N 1467.75 -0.0969077 -1.57302 0
M  V30 15341 C 1469.16 0.431942 -1.81635 0
M  V30 15342 C 1469.52 1.68047 -1.01264 0
M  V30 15343 O 1468.64 2.15036 -0.24256 0
M  V30 15344 C 1469.24 0.790426 -3.29451 0
M  V30 15345 C 1467.79 1.26401 -3.54542 0
M  V30 15346 C 1466.94 0.26158 -2.76063 0
M  V30 15347 H 1469.89 -0.322328 -1.55392 0
M  V30 15348 H 1469.91 1.64981 -3.42873 0
M  V30 15349 H 1469.43 -0.118463 -3.87919 0
M  V30 15350 H 1467.53 2.19055 -3.01406 0
M  V30 15351 H 1467.64 1.22459 -4.63185 0
M  V30 15352 H 1466 0.7441 -2.43588 0
M  V30 15353 H 1466.79 -0.640018 -3.37281 0
M  V30 15354 N 1469.23 1.56605 0.176793 0
M  V30 15355 C 1470.48 1.80875 0.892578 0
M  V30 15356 C 1470.79 0.673245 1.83648 0
M  V30 15357 O 1472 0.800732 2.59423 0
M  V30 15358 C 1470.46 3.20481 1.63768 0
M  V30 15359 C 1470.06 4.41885 0.737685 0
M  V30 15360 C 1471.81 3.54048 2.34202 0
M  V30 15361 C 1469.71 5.72512 1.48271 0
M  V30 15362 H 1468.64 0.674476 0.337042 0
M  V30 15363 H 1471.3 1.82922 0.145574 0
M  V30 15364 H 1469.68 3.12736 2.42924 0
M  V30 15365 H 1470.85 4.60797 -0.0165186 0
M  V30 15366 H 1469.17 4.16153 0.143277 0
M  V30 15367 H 1471.76 4.48886 2.90526 0
M  V30 15368 H 1472.11 2.78665 3.09276 0
M  V30 15369 H 1472.64 3.63322 1.61995 0
M  V30 15370 H 1469.38 6.5091 0.774399 0
M  V30 15371 H 1468.9 5.57586 2.21038 0
M  V30 15372 H 1470.58 6.14274 2.03165 0
M  V30 15373 N 1470.71 -0.445159 1.51182 0
M  V30 15374 C 1472.13 -0.781023 1.39184 0
M  V30 15375 C 1472.33 -1.95988 0.468076 0
M  V30 15376 O 1471.38 -2.52374 -0.0796822 0
M  V30 15377 C 1472.69 -1.06874 2.81067 0
M  V30 15378 C 1474.24 -1.17364 2.90163 0
M  V30 15379 C 1474.72 -1.49433 4.32936 0
M  V30 15380 N 1476.21 -1.56373 4.36006 0
M  V30 15381 C 1476.94 -1.82743 5.435 0
M  V30 15382 N 1476.44 -2.06958 6.61166 0
M  V30 15383 N 1478.23 -1.84461 5.30971 0
M  V30 15384 H 1470.38 0.331347 2.098 0
M  V30 15385 H 1472.65 0.0858102 0.944108 0
M  V30 15386 H 1472.35 -0.275306 3.50621 0
M  V30 15387 H 1472.23 -1.99839 3.19913 0
M  V30 15388 H 1474.61 -1.95771 2.20812 0
M  V30 15389 H 1474.69 -0.22318 2.54825 0
M  V30 15390 H 1474.34 -0.715573 5.02834 0
M  V30 15391 H 1474.27 -2.45673 4.65782 0
M  V30 15392 H 1476.76 -1.39595 3.51172 0
M  V30 15393 H 1477.07 -2.26427 7.38885 0
M  V30 15394 H 1475.42 -2.04297 6.64295 0
M  V30 15395 H 1478.61 -1.65057 4.38034 0
M  V30 15396 H 1478.78 -2.04675 6.14827 0
M  V30 15397 N 1472.19 -1.41197 -0.700089 0
M  V30 15398 C 1473.43 -1.40311 -1.46011 0
M  V30 15399 C 1473.76 -0.0106853 -1.94497 0
M  V30 15400 O 1473.02 0.976648 -1.69588 0
M  V30 15401 C 1473.32 -2.35259 -2.6905 0
M  V30 15402 C 1472.98 -3.82194 -2.39245 0
M  V30 15403 C 1471.64 -4.22223 -2.30827 0
M  V30 15404 C 1474 -4.74983 -2.1457 0
M  V30 15405 C 1471.32 -5.53055 -1.95824 0
M  V30 15406 C 1473.68 -6.0613 -1.81077 0
M  V30 15407 C 1472.34 -6.45185 -1.71151 0
M  V30 15408 H 1471.61 -0.513434 -0.534291 0
M  V30 15409 H 1474.26 -1.73963 -0.800574 0
M  V30 15410 H 1472.56 -1.94845 -3.39915 0
M  V30 15411 H 1474.26 -2.31849 -3.2718 0
M  V30 15412 H 1470.85 -3.50488 -2.4669 0
M  V30 15413 H 1475.03 -4.44864 -2.20021 0
M  V30 15414 H 1470.29 -5.822 -1.86689 0
M  V30 15415 H 1474.46 -6.77533 -1.61002 0
M  V30 15416 H 1472.09 -7.46476 -1.43796 0
M  V30 15417 N 1473.67 0.933891 -1.2695 0
M  V30 15418 C 1474.6 2.03768 -1.04934 0
M  V30 15419 C 1475.61 1.62798 -0.00740752 0
M  V30 15420 O 1476.8 1.76765 -0.248289 0
M  V30 15421 C 1473.9 3.34097 -0.568515 0
M  V30 15422 C 1473.07 4.03794 -1.68133 0
M  V30 15423 C 1472.13 5.12397 -1.19731 0
M  V30 15424 O 1471.16 5.36701 -1.89579 0
M  V30 15425 N 1472.36 5.80479 -0.0496327 0
M  V30 15426 H 1475.12 2.23219 -1.99984 0
M  V30 15427 H 1472.69 1.10386 -1.18433 0
M  V30 15428 H 1474.68 4.04053 -0.228736 0
M  V30 15429 H 1473.25 3.11265 0.288587 0
M  V30 15430 H 1472.47 3.27655 -2.1917 0
M  V30 15431 H 1473.76 4.4711 -2.42837 0
M  V30 15432 H 1473.15 5.63179 0.533509 0
M  V30 15433 H 1471.71 6.5139 0.231014 0
M  V30 15434 N 1475.14 1.08871 1.13951 0
M  V30 15435 C 1476.39 0.832367 1.85589 0
M  V30 15436 C 1476.74 -0.635083 1.81616 0
M  V30 15437 O 1476.04 -1.46123 1.2393 0
M  V30 15438 C 1476.23 1.29443 3.33135 0
M  V30 15439 C 1476.06 2.80527 3.51475 0
M  V30 15440 C 1474.83 3.48334 3.66048 0
M  V30 15441 C 1477.03 3.78686 3.47996 0
M  V30 15442 N 1475.01 4.87901 3.72593 0
M  V30 15443 C 1476.38 5.04176 3.60842 0
M  V30 15444 C 1478.44 3.71623 3.31362 0
M  V30 15445 C 1477.14 6.23438 3.58772 0
M  V30 15446 C 1479.17 4.90366 3.30598 0
M  V30 15447 C 1478.53 6.14696 3.43989 0
M  V30 15448 H 1474.63 0.357365 0.695568 0
M  V30 15449 H 1477.21 1.38799 1.36539 0
M  V30 15450 H 1475.38 0.766326 3.80765 0
M  V30 15451 H 1477.11 0.984006 3.92555 0
M  V30 15452 H 1473.87 2.98755 3.67481 0
M  V30 15453 H 1474.29 5.60584 3.79571 0
M  V30 15454 H 1478.93 2.7643 3.19916 0
M  V30 15455 H 1476.65 7.18937 3.68993 0
M  V30 15456 H 1480.24 4.86593 3.18933 0
M  V30 15457 H 1479.12 7.05039 3.43351 0
M  V30 15458 N 1476.62 -1.31073 0.875073 0
M  V30 15459 C 1477.87 -1.97194 0.498612 0
M  V30 15460 C 1478.22 -1.67884 -0.939819 0
M  V30 15461 O 1477.52 -0.967708 -1.65366 0
M  V30 15462 C 1477.71 -3.50511 0.698351 0
M  V30 15463 C 1477.54 -3.94722 2.15465 0
M  V30 15464 C 1476.31 -4.2081 2.79726 0
M  V30 15465 C 1478.51 -4.08283 3.12745 0
M  V30 15466 N 1476.49 -4.51411 4.16055 0
M  V30 15467 C 1477.86 -4.42653 4.34117 0
M  V30 15468 C 1479.91 -3.90678 3.08667 0
M  V30 15469 C 1478.62 -4.61255 5.51939 0
M  V30 15470 C 1480.64 -4.10476 4.25751 0
M  V30 15471 C 1480.01 -4.45182 5.45887 0
M  V30 15472 H 1476.1 -0.74692 0.231592 0
M  V30 15473 H 1478.69 -1.585 1.13074 0
M  V30 15474 H 1476.86 -3.88282 0.0957804 0
M  V30 15475 H 1478.59 -4.03661 0.289771 0
M  V30 15476 H 1475.35 -4.13641 2.30648 0
M  V30 15477 H 1475.77 -4.70862 4.86434 0
M  V30 15478 H 1480.41 -3.6293 2.16892 0
M  V30 15479 H 1478.13 -4.8785 6.44227 0
M  V30 15480 H 1481.72 -3.98334 4.24054 0
M  V30 15481 H 1480.6 -4.60189 6.34977 0
M  V30 15482 N 1478.1 -0.635022 -1.4424 0
M  V30 15483 C 1479.03 0.0543561 -2.33437 0
M  V30 15484 C 1480.01 0.830807 -1.48431 0
M  V30 15485 O 1481.2 0.795913 -1.77141 0
M  V30 15486 C 1478.33 1.03391 -3.31553 0
M  V30 15487 C 1477.28 0.368824 -4.26408 0
M  V30 15488 C 1476.61 1.45855 -5.14422 0
M  V30 15489 C 1477.91 -0.727381 -5.1721 0
M  V30 15490 H 1479.6 -0.690489 -2.91329 0
M  V30 15491 H 1477.15 -0.3335 -1.40085 0
M  V30 15492 H 1479.1 1.52495 -3.9284 0
M  V30 15493 H 1477.82 1.80969 -2.71878 0
M  V30 15494 H 1476.48 -0.101605 -3.66459 0
M  V30 15495 H 1476.13 2.22531 -4.51098 0
M  V30 15496 H 1475.83 1.0189 -5.78699 0
M  V30 15497 H 1477.35 1.95132 -5.78581 0
M  V30 15498 H 1478.77 -0.319272 -5.7241 0
M  V30 15499 H 1477.17 -1.09041 -5.9011 0
M  V30 15500 H 1478.24 -1.59292 -4.57989 0
M  V30 15501 N 1479.58 1.53054 -0.375806 0
M  V30 15502 C 1480.82 2.017 0.210985 0
M  V30 15503 C 1481.16 1.26228 1.47581 0
M  V30 15504 O 1480.43 0.358869 1.91161 0
M  V30 15505 C 1480.72 3.56715 0.492596 0
M  V30 15506 C 1480.57 4.42869 -0.786573 0
M  V30 15507 C 1481.89 4.20803 1.28891 0
M  V30 15508 H 1479.01 0.733153 0.0752084 0
M  V30 15509 H 1481.65 1.83229 -0.502715 0
M  V30 15510 H 1479.8 3.72585 1.10059 0
M  V30 15511 H 1481.47 4.38777 -1.42381 0
M  V30 15512 H 1479.71 4.10425 -1.40478 0
M  V30 15513 H 1480.38 5.49309 -0.544354 0
M  V30 15514 H 1482.86 4.08828 0.774498 0
M  V30 15515 H 1481.74 5.29273 1.45469 0
M  V30 15516 H 1482 3.77541 2.30033 0
M  V30 15517 N 1481.06 0.105248 1.57248 0
M  V30 15518 C 1482.47 -0.422304 1.81861 0
M  V30 15519 C 1482.82 -1.67508 1.02154 0
M  V30 15520 O 1481.94 -2.14905 0.253961 0
M  V30 15521 C 1482.54 -0.772943 3.29865 0
M  V30 15522 C 1481.1 -1.24519 3.55207 0
M  V30 15523 C 1480.24 -0.246936 2.76198 0
M  V30 15524 H 1483.2 0.330565 1.55219 0
M  V30 15525 H 1483.22 -1.6316 3.43743 0
M  V30 15526 H 1482.73 0.139033 3.87851 0
M  V30 15527 H 1480.83 -2.17453 3.02564 0
M  V30 15528 H 1480.94 -1.20001 4.63828 0
M  V30 15529 H 1479.31 -0.731171 2.43979 0
M  V30 15530 H 1480.09 0.657896 3.36937 0
M  V30 15531 N 1482.53 -1.56697 -0.168486 0
M  V30 15532 C 1483.46 -1.99659 -1.21073 0
M  V30 15533 C 1484.45 -0.872625 -1.46011 0
M  V30 15534 O 1485.63 -1.13891 -1.57297 0
M  V30 15535 C 1482.76 -2.35889 -2.54899 0
M  V30 15536 C 1481.71 -3.51272 -2.44524 0
M  V30 15537 C 1481.04 -3.73253 -3.82866 0
M  V30 15538 C 1482.34 -4.84631 -1.94756 0
M  V30 15539 H 1484.03 -2.86974 -0.853593 0
M  V30 15540 H 1481.58 -1.38065 -0.409165 0
M  V30 15541 H 1483.53 -2.64542 -3.28017 0
M  V30 15542 H 1482.26 -1.45486 -2.92406 0
M  V30 15543 H 1480.92 -3.22751 -1.7386 0
M  V30 15544 H 1480.56 -2.80136 -4.17772 0
M  V30 15545 H 1480.26 -4.5089 -3.76792 0
M  V30 15546 H 1481.79 -4.04309 -4.57566 0
M  V30 15547 H 1483.2 -5.12142 -2.5765 0
M  V30 15548 H 1481.6 -5.65925 -1.99623 0
M  V30 15549 H 1482.67 -4.76436 -0.902021 0
M  V30 15550 N 1484.01 0.437135 -1.51416 0
M  V30 15551 C 1485.42 1.01699 -1.5657 0
M  V30 15552 C 1485.77 1.92299 -0.389291 0
M  V30 15553 O 1484.9 2.10689 0.49389 0
M  V30 15554 C 1485.49 1.85119 -2.83754 0
M  V30 15555 C 1484.05 2.38154 -2.91478 0
M  V30 15556 C 1483.2 1.17374 -2.51234 0
M  V30 15557 H 1486.15 0.218399 -1.5719 0
M  V30 15558 H 1486.17 2.70572 -2.67528 0
M  V30 15559 H 1485.68 1.19153 -3.69357 0
M  V30 15560 H 1483.79 3.07575 -2.10306 0
M  V30 15561 H 1483.9 2.70937 -3.95133 0
M  V30 15562 H 1482.26 1.51913 -2.04437 0
M  V30 15563 H 1483.05 0.530176 -3.39181 0
M  V30 15564 N 1485.49 1.41566 0.692592 0
M  V30 15565 C 1486.72 1.44236 1.47917 0
M  V30 15566 C 1487.13 0.0469112 1.89142 0
M  V30 15567 O 1486.47 -0.944788 1.57542 0
M  V30 15568 C 1486.53 2.29056 2.7708 0
M  V30 15569 C 1486.2 3.77179 2.58041 0
M  V30 15570 C 1487.19 4.69267 2.23795 0
M  V30 15571 C 1484.88 4.21253 2.73589 0
M  V30 15572 C 1486.87 6.03419 2.05338 0
M  V30 15573 C 1484.56 5.55469 2.54749 0
M  V30 15574 C 1485.56 6.46368 2.20675 0
M  V30 15575 O 1485.25 7.78107 2.02002 0
M  V30 15576 H 1484.98 0.493237 0.462269 0
M  V30 15577 H 1487.53 1.8653 0.859984 0
M  V30 15578 H 1485.76 1.8158 3.41417 0
M  V30 15579 H 1487.45 2.23392 3.38897 0
M  V30 15580 H 1488.22 4.36506 2.11395 0
M  V30 15581 H 1484.1 3.50804 2.99094 0
M  V30 15582 H 1487.64 6.74333 1.78665 0
M  V30 15583 H 1483.54 5.87809 2.66741 0
M  V30 15584 H 1484.31 7.89282 2.16741 0
M  V30 15585 N 1486.97 -0.927146 1.27443 0
M  V30 15586 C 1488.22 -1.67159 1.13589 0
M  V30 15587 C 1488.54 -1.92379 -0.31865 0
M  V30 15588 O 1487.81 -1.53045 -1.22287 0
M  V30 15589 H 1486.39 -0.619524 0.417371 0
M  V30 15590 H 1489.05 -1.11323 1.59979 0
M  V30 15591 H 1488.15 -2.63954 1.66537 0
M  V30 15592 N 1488.45 -1.09474 -1.13372 0
M  V30 15593 C 1489.7 -0.825968 -1.84013 0
M  V30 15594 C 1490.01 0.650623 -1.84462 0
M  V30 15595 O 1491.21 1.03495 -2.51 0
M  V30 15596 C 1489.67 -1.42769 -3.30371 0
M  V30 15597 C 1489.28 -2.93686 -3.38308 0
M  V30 15598 C 1491.02 -1.23788 -4.0605 0
M  V30 15599 C 1488.93 -3.46942 -4.78942 0
M  V30 15600 H 1487.86 -0.305322 -0.689416 0
M  V30 15601 H 1490.51 -1.31751 -1.27726 0
M  V30 15602 H 1488.89 -0.86384 -3.86463 0
M  V30 15603 H 1490.07 -3.56302 -2.92208 0
M  V30 15604 H 1488.38 -3.11706 -2.76094 0
M  V30 15605 H 1490.98 -1.61031 -5.09876 0
M  V30 15606 H 1491.32 -0.178578 -4.15917 0
M  V30 15607 H 1491.85 -1.76927 -3.56289 0
M  V30 15608 H 1488.59 -4.52495 -4.74267 0
M  V30 15609 H 1488.11 -2.8909 -5.25535 0
M  V30 15610 H 1489.79 -3.44176 -5.47861 0
M  V30 15611 N 1489.92 1.30607 -0.882012 0
M  V30 15612 C 1490.85 2.30666 -0.362706 0
M  V30 15613 C 1491.84 1.60865 0.552861 0
M  V30 15614 O 1493.02 1.88493 0.467339 0
M  V30 15615 C 1490.15 3.44675 0.42622 0
M  V30 15616 C 1489.1 4.26152 -0.397322 0
M  V30 15617 C 1488.43 5.32185 0.518027 0
M  V30 15618 C 1489.73 4.95955 -1.63785 0
M  V30 15619 H 1491.42 2.74351 -1.19883 0
M  V30 15620 H 1488.97 1.31895 -0.577912 0
M  V30 15621 H 1490.92 4.13734 0.80013 0
M  V30 15622 H 1489.65 2.99787 1.29597 0
M  V30 15623 H 1488.31 3.58776 -0.753332 0
M  V30 15624 H 1487.95 4.83545 1.3854 0
M  V30 15625 H 1487.65 5.87593 -0.0291802 0
M  V30 15626 H 1489.18 6.04101 0.888518 0
M  V30 15627 H 1490.59 5.57547 -1.3347 0
M  V30 15628 H 1488.99 5.61215 -2.12504 0
M  V30 15629 H 1490.06 4.22252 -2.38394 0
M  V30 15630 N 1491.4 0.642663 1.43901 0
M  V30 15631 C 1492.65 0.149167 2.01148 0
M  V30 15632 C 1492.96 -1.2405 1.51231 0
M  V30 15633 O 1494.17 -1.82864 2.00681 0
M  V30 15634 C 1492.63 0.215891 3.59252 0
M  V30 15635 C 1492.23 1.60759 4.18163 0
M  V30 15636 C 1493.98 -0.220546 4.23927 0
M  V30 15637 C 1491.89 1.62881 5.68528 0
M  V30 15638 H 1490.82 0.0520015 0.752205 0
M  V30 15639 H 1493.47 0.803152 1.6499 0
M  V30 15640 H 1491.85 -0.505409 3.92762 0
M  V30 15641 H 1493.02 2.3534 3.96171 0
M  V30 15642 H 1491.34 1.9891 3.65819 0
M  V30 15643 H 1493.93 -0.224389 5.34229 0
M  V30 15644 H 1494.28 -1.25003 3.97089 0
M  V30 15645 H 1494.81 0.448646 3.95262 0
M  V30 15646 H 1491.55 2.63704 6.00117 0
M  V30 15647 H 1491.07 0.926104 5.92607 0
M  V30 15648 H 1492.75 1.36785 6.32375 0
M  V30 15649 N 1492.88 -1.52852 0.383918 0
M  V30 15650 C 1494.13 -2.0151 -0.199989 0
M  V30 15651 C 1494.46 -1.27058 -1.47263 0
M  V30 15652 O 1493.71 -0.357819 -1.92401 0
M  V30 15653 C 1494.01 -3.53602 -0.519674 0
M  V30 15654 C 1493.68 -4.46032 0.660789 0
M  V30 15655 C 1492.34 -4.71018 0.984646 0
M  V30 15656 C 1494.69 -5.00602 1.45077 0
M  V30 15657 C 1492.02 -5.47824 2.10013 0
M  V30 15658 C 1494.37 -5.78627 2.55682 0
M  V30 15659 C 1493.03 -6.01894 2.88582 0
M  V30 15660 H 1492.3 -0.737377 -0.0731812 0
M  V30 15661 H 1494.95 -1.843 0.520157 0
M  V30 15662 H 1493.26 -3.68856 -1.32108 0
M  V30 15663 H 1494.95 -3.88739 -0.984011 0
M  V30 15664 H 1491.54 -4.26745 0.398359 0
M  V30 15665 H 1495.73 -4.81228 1.21381 0
M  V30 15666 H 1490.98 -5.64066 2.3588 0
M  V30 15667 H 1495.16 -6.19914 3.173 0
M  V30 15668 H 1492.78 -6.61192 3.75138 0
M  V30 15669 N 1494.36 -0.113586 -1.5719 0
M  V30 15670 C 1495.61 0.546529 -1.95297 0
M  V30 15671 C 1495.94 1.66674 -0.996671 0
M  V30 15672 O 1495.21 1.94472 -0.0329298 0
M  V30 15673 C 1495.5 1.08433 -3.43387 0
M  V30 15674 C 1495.35 -0.0320929 -4.49789 0
M  V30 15675 C 1496.67 1.97691 -3.932 0
M  V30 15676 H 1493.79 0.197195 -0.710129 0
M  V30 15677 H 1496.43 -0.188048 -1.89067 0
M  V30 15678 H 1494.58 1.71033 -3.48827 0
M  V30 15679 H 1496.25 -0.66716 -4.5645 0
M  V30 15680 H 1494.49 -0.695983 -4.2818 0
M  V30 15681 H 1495.17 0.385341 -5.50653 0
M  V30 15682 H 1497.64 1.4497 -3.90029 0
M  V30 15683 H 1496.52 2.3224 -4.97349 0
M  V30 15684 H 1496.78 2.90137 -3.33576 0
M  V30 15685 N 1495.84 1.56784 0.160173 0
M  V30 15686 C 1497.07 1.86496 0.888969 0
M  V30 15687 C 1497.48 0.698244 1.75844 0
M  V30 15688 O 1496.82 -0.341543 1.80497 0
M  V30 15689 C 1496.88 3.10758 1.80748 0
M  V30 15690 C 1496.54 4.43152 1.1165 0
M  V30 15691 C 1497.54 5.1771 0.476643 0
M  V30 15692 C 1495.23 4.89883 1.10993 0
M  V30 15693 C 1497.22 6.37198 -0.160552 0
M  V30 15694 C 1494.91 6.09298 0.468916 0
M  V30 15695 C 1495.91 6.828 -0.165211 0
M  V30 15696 O 1495.59 7.99948 -0.796092 0
M  V30 15697 H 1495.33 0.622688 0.263128 0
M  V30 15698 H 1497.88 2.04762 0.161706 0
M  V30 15699 H 1496.11 2.88466 2.57535 0
M  V30 15700 H 1497.8 3.26825 2.40708 0
M  V30 15701 H 1498.56 4.82682 0.473616 0
M  V30 15702 H 1494.44 4.32605 1.59292 0
M  V30 15703 H 1497.99 6.94508 -0.656107 0
M  V30 15704 H 1493.88 6.4379 0.469565 0
M  V30 15705 H 1494.65 8.15532 -0.696448 0
M  V30 15706 N 1497.32 -0.429099 1.51646 0
M  V30 15707 C 1498.59 -1.18958 1.55269 0
M  V30 15708 C 1498.97 -2.08633 0.321816 0
M  V30 15709 O 1498.32 -2.1775 -0.69261 0
M  V30 15710 C 1498.53 -1.98427 2.87102 0
M  V30 15711 C 1499.88 -2.55185 3.39361 0
M  V30 15712 O 1500.9 -2.08629 2.88708 0
M  V30 15713 O 1499.76 -3.40119 4.27763 0
M  V30 15714 H 1496.86 -0.542041 0.624596 0
M  V30 15715 H 1499.4 -0.437499 1.63964 0
M  V30 15716 H 1498.17 -1.32613 3.68143 0
M  V30 15717 H 1497.8 -2.80683 2.81608 0
M  V30 15718 N 1498.79 -1.41931 -0.685074 0
M  V30 15719 C 1499.7 -1.46985 -1.82846 0
M  V30 15720 C 1500.72 -0.359487 -1.70246 0
M  V30 15721 O 1501.9 -0.608824 -1.91977 0
M  V30 15722 C 1498.96 -1.36001 -3.18912 0
M  V30 15723 C 1498.02 -2.57442 -3.43543 0
M  V30 15724 C 1497.25 -2.46972 -4.73118 0
M  V30 15725 O 1497.48 -1.49999 -5.50324 0
M  V30 15726 O 1496.41 -3.36922 -4.98766 0
M  V30 15727 H 1500.24 -2.4347 -1.81538 0
M  V30 15728 H 1497.82 -1.23583 -0.839497 0
M  V30 15729 H 1499.7 -1.32198 -4.00127 0
M  V30 15730 H 1498.38 -0.426366 -3.2088 0
M  V30 15731 H 1497.29 -2.66821 -2.62217 0
M  V30 15732 H 1498.62 -3.49671 -3.46398 0
M  V30 15733 N 1500.27 0.920374 -1.27933 0
M  V30 15734 C 1501.52 1.66338 -1.14081 0
M  V30 15735 C 1501.83 1.93107 0.311324 0
M  V30 15736 O 1503.04 2.65431 0.570862 0
M  V30 15737 C 1501.5 2.99624 -1.99383 0
M  V30 15738 C 1501.1 2.80527 -3.49297 0
M  V30 15739 C 1502.85 3.77474 -1.94199 0
M  V30 15740 C 1500.75 4.09413 -4.26773 0
M  V30 15741 H 1499.68 0.623935 -0.423346 0
M  V30 15742 H 1502.34 1.0219 -1.52412 0
M  V30 15743 H 1500.72 3.6487 -1.53902 0
M  V30 15744 H 1501.89 2.24002 -4.02691 0
M  V30 15745 H 1500.21 2.16097 -3.55937 0
M  V30 15746 H 1502.8 4.72997 -2.49356 0
M  V30 15747 H 1503.15 4.06069 -0.917249 0
M  V30 15748 H 1503.68 3.19036 -2.37614 0
M  V30 15749 H 1500.42 3.85994 -5.29801 0
M  V30 15750 H 1499.94 4.65574 -3.78155 0
M  V30 15751 H 1501.62 4.77721 -4.36339 0
M  V30 15752 N 1501.75 1.10074 1.1279 0
M  V30 15753 C 1503.17 0.831776 1.36212 0
M  V30 15754 C 1503.37 -0.550632 1.93831 0
M  V30 15755 O 1502.42 -1.30422 2.16209 0
M  V30 15756 C 1503.73 1.92844 2.3072 0
M  V30 15757 C 1505.28 1.95645 2.4432 0
M  V30 15758 C 1505.76 3.04474 3.4214 0
M  V30 15759 N 1507.25 3.03756 3.49695 0
M  V30 15760 C 1507.98 3.84605 4.25284 0
M  V30 15761 N 1507.48 4.7538 5.0397 0
M  V30 15762 N 1509.27 3.72838 4.20652 0
M  V30 15763 H 1501.42 1.99187 0.737452 0
M  V30 15764 H 1503.69 0.865383 0.387062 0
M  V30 15765 H 1503.39 2.92323 1.9555 0
M  V30 15766 H 1503.27 1.81241 3.30805 0
M  V30 15767 H 1505.65 0.968004 2.78772 0
M  V30 15768 H 1505.73 2.11325 1.44136 0
M  V30 15769 H 1505.38 4.03536 3.08418 0
M  V30 15770 H 1505.31 2.86036 4.42144 0
M  V30 15771 H 1507.8 2.37977 2.93556 0
M  V30 15772 H 1508.11 5.33637 5.58974 0
M  V30 15773 H 1506.46 4.79411 5.0318 0
M  V30 15774 H 1509.65 3.01276 3.5826 0
M  V30 15775 H 1509.82 4.36083 4.79308 0
M  V30 15776 N 1503.23 -1.30138 0.888926 0
M  V30 15777 C 1504.17 -2.28023 0.356923 0
M  V30 15778 C 1505.14 -1.56551 -0.555066 0
M  V30 15779 O 1506.33 -1.84595 -0.482633 0
M  V30 15780 C 1503.47 -3.42546 -0.419056 0
M  V30 15781 C 1502.58 -4.28827 0.5226 0
M  V30 15782 C 1501.72 -5.30517 -0.269366 0
M  V30 15783 C 1500.76 -6.08449 0.667507 0
M  V30 15784 N 1499.89 -7.02043 -0.08938 0
M  V30 15785 H 1504.73 -2.72912 1.19678 0
M  V30 15786 H 1502.27 -1.34239 0.60152 0
M  V30 15787 H 1504.23 -4.07707 -0.884911 0
M  V30 15788 H 1502.86 -2.98716 -1.22346 0
M  V30 15789 H 1501.91 -3.63938 1.10695 0
M  V30 15790 H 1503.22 -4.83136 1.24018 0
M  V30 15791 H 1502.38 -6.01444 -0.796901 0
M  V30 15792 H 1501.12 -4.76911 -1.02014 0
M  V30 15793 H 1500.12 -5.36396 1.20664 0
M  V30 15794 H 1501.35 -6.64143 1.41744 0
M  V30 15795 H 1499.29 -6.50822 -0.822622 0
M  V30 15796 H 1499.21 -7.53859 0.568499 0
M  V30 15797 H 1500.48 -7.77206 -0.597529 0
M  V30 15798 N 1504.71 -0.650285 -1.43559 0
M  V30 15799 C 1505.64 0.0295939 -2.33481 0
M  V30 15800 C 1506.62 0.815017 -1.49303 0
M  V30 15801 O 1507.8 0.77708 -1.77975 0
M  V30 15802 C 1504.93 0.998683 -3.32631 0
M  V30 15803 C 1503.89 0.323577 -4.26775 0
M  V30 15804 C 1503.21 1.40391 -5.1594 0
M  V30 15805 C 1504.51 -0.782197 -5.1641 0
M  V30 15806 H 1506.21 -0.721349 -2.9058 0
M  V30 15807 H 1503.75 -0.348339 -1.39723 0
M  V30 15808 H 1505.7 1.4832 -3.94435 0
M  V30 15809 H 1504.43 1.78075 -2.73782 0
M  V30 15810 H 1503.09 -0.140467 -3.66331 0
M  V30 15811 H 1502.74 2.17734 -4.53432 0
M  V30 15812 H 1502.44 0.957462 -5.79747 0
M  V30 15813 H 1503.96 1.88985 -5.80618 0
M  V30 15814 H 1505.37 -0.379966 -5.72039 0
M  V30 15815 H 1503.77 -1.15293 -5.88921 0
M  V30 15816 H 1504.84 -1.6414 -4.56274 0
M  V30 15817 N 1506.18 1.52647 -0.392018 0
M  V30 15818 C 1507.43 2.01215 0.188926 0
M  V30 15819 C 1507.75 1.28019 1.47092 0
M  V30 15820 O 1507.02 0.401048 1.91751 0
M  V30 15821 H 1505.6 0.743444 0.0728049 0
M  V30 15822 H 1508.26 1.87715 -0.524332 0
M  V30 15823 H 1507.36 3.09562 0.397216 0
M  V30 15824 N 1507.66 0.121921 1.57128 0
M  V30 15825 C 1508.91 -0.536164 1.95584 0
M  V30 15826 C 1509.24 -1.66143 1.0055 0
M  V30 15827 O 1508.52 -1.94452 0.0432427 0
M  V30 15828 C 1508.8 -1.0661 3.43957 0
M  V30 15829 C 1508.65 0.0559458 4.49765 0
M  V30 15830 C 1509.97 -1.95603 3.94243 0
M  V30 15831 H 1507.09 -0.193427 0.711165 0
M  V30 15832 H 1509.73 0.198072 1.88965 0
M  V30 15833 H 1507.88 -1.69181 3.49729 0
M  V30 15834 H 1509.55 0.691357 4.5609 0
M  V30 15835 H 1507.8 0.71868 4.27805 0
M  V30 15836 H 1508.47 -0.356133 5.5085 0
M  V30 15837 H 1510.94 -1.42899 3.90793 0
M  V30 15838 H 1509.82 -2.29599 4.98573 0
M  V30 15839 H 1510.08 -2.88364 3.3511 0
M  V30 15840 N 1509.14 -1.56867 -0.151857 0
M  V30 15841 C 1510.56 -1.51422 -0.504328 0
M  V30 15842 C 1510.76 -0.829524 -1.83633 0
M  V30 15843 O 1509.81 -0.398018 -2.49343 0
M  V30 15844 C 1511.13 -2.96185 -0.519117 0
M  V30 15845 C 1512.67 -3.07098 -0.60497 0
M  V30 15846 C 1513.15 -4.53357 -0.650468 0
M  V30 15847 N 1514.64 -4.57682 -0.712825 0
M  V30 15848 C 1515.37 -5.68221 -0.768931 0
M  V30 15849 N 1514.87 -6.88342 -0.784678 0
M  V30 15850 N 1516.66 -5.56241 -0.809441 0
M  V30 15851 H 1508.81 -1.99777 0.721316 0
M  V30 15852 H 1511.08 -0.910951 0.262436 0
M  V30 15853 H 1510.78 -3.49516 0.391315 0
M  V30 15854 H 1510.66 -3.51877 -1.35876 0
M  V30 15855 H 1513.04 -2.53789 -1.50582 0
M  V30 15856 H 1513.13 -2.54458 0.261722 0
M  V30 15857 H 1512.77 -5.07303 0.246207 0
M  V30 15858 H 1512.7 -5.03775 -1.53358 0
M  V30 15859 H 1515.19 -3.71206 -0.708151 0
M  V30 15860 H 1515.5 -7.68339 -0.829202 0
M  V30 15861 H 1513.85 -6.90913 -0.752634 0
M  V30 15862 H 1517.04 -4.61312 -0.794274 0
M  V30 15863 H 1517.21 -6.42405 -0.849701 0
M  V30 15864 N 1510.62 0.421051 -1.51871 0
M  V30 15865 C 1511.86 1.17838 -1.67013 0
M  V30 15866 C 1512.22 1.88083 -0.385861 0
M  V30 15867 O 1513.42 2.65605 -0.41324 0
M  V30 15868 C 1511.69 2.15567 -2.85071 0
M  V30 15869 S 1513.25 2.99568 -3.20631 0
M  V30 15870 H 1510.07 0.399375 -0.588235 0
M  V30 15871 H 1512.67 0.46746 -1.89829 0
M  V30 15872 H 1511.38 1.62629 -3.76802 0
M  V30 15873 H 1510.91 2.91216 -2.64493 0
M  V30 15874 H 1512.92 4.1739 -2.68328 0
M  V30 15875 N 1512.1 1.42293 0.677538 0
M  V30 15876 C 1513.34 1.44099 1.44965 0
M  V30 15877 C 1513.7 0.0545275 1.91923 0
M  V30 15878 O 1514.9 -0.0526718 2.68748 0
M  V30 15879 C 1513.17 2.43462 2.61651 0
M  V30 15880 S 1514.73 2.63947 3.50538 0
M  V30 15881 H 1511.55 0.51024 0.495153 0
M  V30 15882 H 1514.15 1.78874 0.788939 0
M  V30 15883 H 1512.86 3.42971 2.25387 0
M  V30 15884 H 1512.39 2.10102 3.32597 0
M  V30 15885 H 1514.4 1.92042 4.57531 0
M  V30 15886 N 1513.57 -0.913576 1.28419 0
M  V30 15887 C 1514.99 -1.47782 1.14094 0
M  V30 15888 C 1515.34 -1.94347 -0.269004 0
M  V30 15889 O 1514.46 -1.82474 -1.16328 0
M  V30 15890 C 1515.06 -2.6859 2.06507 0
M  V30 15891 C 1513.62 -3.21193 1.96245 0
M  V30 15892 C 1512.76 -1.939 1.98238 0
M  V30 15893 H 1515.71 -0.726271 1.41106 0
M  V30 15894 H 1515.73 -3.43858 1.62916 0
M  V30 15895 H 1515.25 -2.34668 3.09116 0
M  V30 15896 H 1513.35 -3.5984 0.966737 0
M  V30 15897 H 1513.46 -3.8643 2.83211 0
M  V30 15898 H 1511.82 -2.11006 1.42648 0
M  V30 15899 H 1512.61 -1.62273 3.02527 0
M  V30 15900 N 1515.05 -1.1067 -1.12204 0
M  V30 15901 C 1516.3 -0.84895 -1.83405 0
M  V30 15902 C 1516.62 0.62724 -1.84637 0
M  V30 15903 O 1515.89 1.45546 -1.31123 0
M  V30 15904 H 1514.47 -0.311074 -0.679148 0
M  V30 15905 H 1517.13 -1.39747 -1.35856 0
M  V30 15906 H 1516.23 -1.21398 -2.87522 0
M  V30 15907 N 1516.53 1.29665 -0.895815 0
M  V30 15908 C 1517.76 2.00399 -0.534333 0
M  V30 15909 C 1518.18 1.66632 0.872654 0
M  V30 15910 O 1517.54 0.888811 1.58018 0
M  V30 15911 C 1517.59 3.53154 -0.729023 0
M  V30 15912 O 1516.69 4.11812 0.22023 0
M  V30 15913 H 1516.03 0.630173 -0.209233 0
M  V30 15914 H 1518.56 1.65253 -1.20634 0
M  V30 15915 H 1518.57 4.03073 -0.632179 0
M  V30 15916 H 1517.25 3.77067 -1.75481 0
M  V30 15917 H 1515.82 3.72822 0.0761687 0
M  V30 15918 N 1518.01 0.657889 1.43212 0
M  V30 15919 C 1519.25 0.182061 2.02584 0
M  V30 15920 C 1519.61 -1.19232 1.51002 0
M  V30 15921 O 1518.9 -1.78535 0.6954 0
M  V30 15922 C 1519.1 0.138025 3.57133 0
M  V30 15923 C 1518.93 1.5066 4.23712 0
M  V30 15924 C 1517.7 2.10015 4.59589 0
M  V30 15925 C 1519.89 2.44593 4.52414 0
M  V30 15926 N 1517.88 3.39828 5.11263 0
M  V30 15927 C 1519.25 3.59044 5.05457 0
M  V30 15928 C 1521.3 2.43337 4.34387 0
M  V30 15929 C 1520 4.7247 5.4237 0
M  V30 15930 C 1522.03 3.55846 4.72364 0
M  V30 15931 C 1521.39 4.69023 5.25544 0
M  V30 15932 H 1517.49 0.111158 0.774059 0
M  V30 15933 H 1520.08 0.867208 1.7432 0
M  V30 15934 H 1518.25 -0.516479 3.84951 0
M  V30 15935 H 1519.98 -0.34911 4.03191 0
M  V30 15936 H 1516.73 1.62676 4.44785 0
M  V30 15937 H 1517.16 4.06269 5.41548 0
M  V30 15938 H 1521.8 1.57072 3.92541 0
M  V30 15939 H 1519.52 5.59423 5.83157 0
M  V30 15940 H 1523.1 3.56081 4.60106 0
M  V30 15941 H 1521.98 5.54641 5.54385 0
M  V30 15942 N 1519.49 -1.52437 0.400108 0
M  V30 15943 C 1520.73 -2.02677 -0.171293 0
M  V30 15944 C 1521.09 -1.28088 -1.43566 0
M  V30 15945 O 1520.38 -0.37592 -1.87876 0
M  V30 15946 C 1520.57 -3.54133 -0.482141 0
M  V30 15947 C 1520.4 -4.43392 0.750551 0
M  V30 15948 C 1519.17 -4.89 1.27306 0
M  V30 15949 C 1521.37 -4.87918 1.62604 0
M  V30 15950 N 1519.35 -5.62361 2.46217 0
M  V30 15951 C 1520.72 -5.59969 2.66148 0
M  V30 15952 C 1522.78 -4.69945 1.64486 0
M  V30 15953 C 1521.48 -6.15955 3.71473 0
M  V30 15954 C 1523.51 -5.26821 2.68725 0
M  V30 15955 C 1522.87 -5.98787 3.7099 0
M  V30 15956 H 1518.97 -0.781617 -0.0244842 0
M  V30 15957 H 1521.55 -1.86698 0.552429 0
M  V30 15958 H 1519.72 -3.70203 -1.17491 0
M  V30 15959 H 1521.46 -3.91065 -1.04164 0
M  V30 15960 H 1518.21 -4.66227 0.832434 0
M  V30 15961 H 1518.64 -6.03688 3.06414 0
M  V30 15962 H 1523.28 -4.13801 0.867657 0
M  V30 15963 H 1521 -6.71175 4.50055 0
M  V30 15964 H 1524.58 -5.14789 2.71078 0
M  V30 15965 H 1523.46 -6.4201 4.50325 0
M  V30 15966 N 1520.96 -0.130252 -1.57061 0
M  V30 15967 C 1522.24 0.569171 -1.87136 0
M  V30 15968 C 1522.62 1.84078 -1.03337 0
M  V30 15969 O 1521.97 2.28208 -0.11543 0
M  V30 15970 C 1522.18 0.850782 -3.38471 0
M  V30 15971 C 1523.53 1.19892 -4.07322 0
M  V30 15972 O 1524.55 0.940682 -3.43554 0
M  V30 15973 O 1523.41 1.6841 -5.19904 0
M  V30 15974 H 1520.5 0.288433 -0.775071 0
M  V30 15975 H 1523.05 -0.165603 -1.6889 0
M  V30 15976 H 1521.82 -0.0498562 -3.91268 0
M  V30 15977 H 1521.45 1.64032 -3.62187 0
M  V30 15978 N 1522.44 1.56945 0.143535 0
M  V30 15979 C 1523.38 1.95134 1.2023 0
M  V30 15980 C 1524.39 0.847593 1.38995 0
M  V30 15981 O 1525.58 1.12599 1.38505 0
M  V30 15982 C 1522.68 2.21316 2.56656 0
M  V30 15983 C 1521.85 3.52604 2.58822 0
M  V30 15984 C 1520.91 3.67285 3.76813 0
M  V30 15985 O 1519.94 4.39644 3.61527 0
M  V30 15986 N 1521.14 3.04208 4.94406 0
M  V30 15987 H 1523.9 2.86561 0.87766 0
M  V30 15988 H 1521.46 1.58437 0.333065 0
M  V30 15989 H 1523.46 2.28375 3.34106 0
M  V30 15990 H 1522.03 1.36137 2.81399 0
M  V30 15991 H 1521.25 3.56954 1.67264 0
M  V30 15992 H 1522.53 4.38944 2.57304 0
M  V30 15993 H 1521.93 2.45344 5.09728 0
M  V30 15994 H 1520.49 3.16824 5.69619 0
M  V30 15995 N 1523.92 -0.412991 1.52093 0
M  V30 15996 C 1524.83 -1.52768 1.78042 0
M  V30 15997 C 1525.85 -1.60758 0.665791 0
M  V30 15998 O 1527.02 -1.77545 0.950772 0
M  V30 15999 C 1524.09 -2.8854 1.92213 0
M  V30 16000 C 1523.15 -2.90468 3.16112 0
M  V30 16001 C 1522.38 -4.19763 3.29598 0
M  V30 16002 O 1522.61 -5.13454 2.48438 0
M  V30 16003 O 1521.54 -4.2847 4.22726 0
M  V30 16004 H 1525.37 -1.33777 2.72649 0
M  V30 16005 H 1522.95 -0.598461 1.3689 0
M  V30 16006 H 1524.83 -3.69073 2.03379 0
M  V30 16007 H 1523.51 -3.07607 1.00795 0
M  V30 16008 H 1522.41 -2.08801 3.10408 0
M  V30 16009 H 1523.75 -2.76349 4.07298 0
M  V30 16010 N 1525.4 -1.4265 -0.669982 0
M  V30 16011 C 1526.33 -1.49298 -1.79534 0
M  V30 16012 C 1527.31 -0.34911 -1.66479 0
M  V30 16013 O 1528.5 -0.564072 -1.85828 0
M  V30 16014 C 1525.63 -1.39935 -3.17861 0
M  V30 16015 C 1524.58 -2.52398 -3.45657 0
M  V30 16016 C 1523.91 -2.28092 -4.8361 0
M  V30 16017 C 1525.21 -3.94697 -3.4207 0
M  V30 16018 H 1526.9 -2.43486 -1.74227 0
M  V30 16019 H 1524.45 -1.17191 -0.836796 0
M  V30 16020 H 1526.4 -1.43193 -3.96325 0
M  V30 16021 H 1525.12 -0.422436 -3.23857 0
M  V30 16022 H 1523.78 -2.48465 -2.69556 0
M  V30 16023 H 1523.43 -1.28683 -4.86261 0
M  V30 16024 H 1523.13 -3.03469 -5.0317 0
M  V30 16025 H 1524.65 -2.33107 -5.64352 0
M  V30 16026 H 1526.07 -4.00207 -4.10496 0
M  V30 16027 H 1524.46 -4.69965 -3.73166 0
M  V30 16028 H 1525.53 -4.21025 -2.40554 0
M  V30 16029 N 1526.88 0.906753 -1.28902 0
M  V30 16030 C 1528.11 1.68774 -1.1916 0
M  V30 16031 C 1528.52 1.87523 0.251339 0
M  V30 16032 O 1527.86 1.4071 1.18095 0
M  V30 16033 C 1527.92 3.09676 -1.82596 0
M  V30 16034 C 1527.58 3.14185 -3.31869 0
M  V30 16035 C 1528.58 2.94858 -4.282 0
M  V30 16036 C 1526.27 3.36476 -3.72947 0
M  V30 16037 C 1528.26 2.97744 -5.63584 0
M  V30 16038 C 1525.95 3.38993 -5.08456 0
M  V30 16039 C 1526.95 3.19648 -6.03584 0
M  V30 16040 O 1526.63 3.2194 -7.3662 0
M  V30 16041 H 1526.37 0.534133 -0.41434 0
M  V30 16042 H 1528.92 1.14282 -1.70671 0
M  V30 16043 H 1527.15 3.65739 -1.25587 0
M  V30 16044 H 1528.84 3.6983 -1.67273 0
M  V30 16045 H 1529.6 2.77456 -3.97798 0
M  V30 16046 H 1525.48 3.50576 -2.99362 0
M  V30 16047 H 1529.03 2.82563 -6.37812 0
M  V30 16048 H 1524.92 3.55924 -5.38506 0
M  V30 16049 H 1525.69 3.38255 -7.45336 0
M  V30 16050 N 1528.36 1.11264 1.11616 0
M  V30 16051 C 1529.59 0.881522 1.8685 0
M  V30 16052 C 1529.99 -0.572088 1.80344 0
M  V30 16053 O 1529.34 -1.40665 1.18148 0
M  V30 16054 C 1529.4 1.26245 3.36604 0
M  V30 16055 C 1529.06 2.72485 3.6688 0
M  V30 16056 C 1530.06 3.70708 3.64516 0
M  V30 16057 C 1527.74 3.09086 3.95943 0
M  V30 16058 C 1529.74 5.0355 3.90789 0
M  V30 16059 C 1527.43 4.42114 4.21875 0
M  V30 16060 C 1528.42 5.39155 4.19286 0
M  V30 16061 O 1528.11 6.69787 4.44568 0
M  V30 16062 H 1527.84 0.315647 0.597782 0
M  V30 16063 H 1530.4 1.48317 1.42095 0
M  V30 16064 H 1528.63 0.603938 3.81955 0
M  V30 16065 H 1530.32 1.00744 3.93199 0
M  V30 16066 H 1531.08 3.43776 3.42115 0
M  V30 16067 H 1526.96 2.34171 3.97095 0
M  V30 16068 H 1530.51 5.79285 3.88684 0
M  V30 16069 H 1526.4 4.6878 4.43751 0
M  V30 16070 H 1527.17 6.75548 4.62144 0
M  V30 16071 O 1529.87 -1.23977 1.03499 0
M  V30 16072 H 1530.56 -1.80478 0.703366 0
M  V30 END ATOM
M  V30 BEGIN BOND
M  V30 END BOND
M  V30 END CTAB
M  END
$$$$
