drugbank_target|Q9NXG6 Transmembrane prolyl 4-hydroxylase (DB00126)
 OpenBabel12092120073D

  0  0  0     0  0            999 V3000
M  V30 BEGIN CTAB
M  V30 COUNTS 7855 7951 0 0 0
M  V30 BEGIN ATOM
M  V30 1 H -0.908 1.98254 -0.117106 0
M  V30 2 N 0 1.576 0 0
M  V30 3 C 0.933 2.03868 1.02534 0
M  V30 4 C 1.911 0.928543 1.3348 0
M  V30 5 O 3.095 1.19667 1.45644 0
M  V30 6 C 0.222 2.43627 2.35294 0
M  V30 7 C -0.732 3.65373 2.2001 0
M  V30 8 S 0.101 5.13292 1.52614 0
M  V30 9 C 1.257 5.56322 2.86805 0
M  V30 10 H 1.49 2.90518 0.631377 0
M  V30 11 H -0.977 1.52953 0.210867 0
M  V30 12 H 0.981 2.67203 3.11629 0
M  V30 13 H -0.358 1.57376 2.7183 0
M  V30 14 H -1.165 3.90944 3.18086 0
M  V30 15 H -1.563 3.418 1.51819 0
M  V30 16 H 0.729 5.58782 3.83104 0
M  V30 17 H 1.672 6.56266 2.65933 0
M  V30 18 H 2.08 4.83886 2.90714 0
M  V30 19 N 1.4781 -0.272755 1.55222 0
M  V30 20 C 2.4411 -1.32041 1.87344 0
M  V30 21 C 3.4411 -1.42342 0.74803 0
M  V30 22 O 4.6311 -1.41488 1.0162 0
M  V30 23 C 1.7631 -2.70173 2.07893 0
M  V30 24 H 2.9561 -1.04789 2.80997 0
M  V30 25 H 0.5091 -0.51083 1.47717 0
M  V30 26 H 1.2441 -3.02605 1.16622 0
M  V30 27 H 1.0291 -2.64082 2.89833 0
M  V30 28 H 2.5191 -3.45869 2.34017 0
M  V30 29 N 2.9562 -1.48159 -0.537278 0
M  V30 30 C 3.9192 -1.61665 -1.62472 0
M  V30 31 C 4.9192 -0.490395 -1.5314 0
M  V30 32 O 6.1092 -0.755998 -1.5694 0
M  V30 33 C 3.2412 -1.57997 -3.02076 0
M  V30 34 H 4.4342 -2.58621 -1.51839 0
M  V30 35 H 1.9872 -1.36647 -0.758771 0
M  V30 36 H 2.7222 -0.624913 -3.18222 0
M  V30 37 H 2.5072 -2.39755 -3.10258 0
M  V30 38 H 3.9972 -1.70627 -3.81151 0
M  V30 39 N 4.4343 0.785586 -1.36625 0
M  V30 40 C 5.3973 1.87999 -1.31107 0
M  V30 41 C 6.3973 1.59316 -0.217959 0
M  V30 42 O 7.5873 1.67656 -0.472977 0
M  V30 43 C 4.7193 3.24861 -1.03334 0
M  V30 44 H 5.9123 1.94307 -2.2844 0
M  V30 45 H 3.4653 0.983813 -1.21453 0
M  V30 46 H 4.2003 3.24235 -0.0647432 0
M  V30 47 H 3.9853 3.4707 -1.82441 0
M  V30 48 H 5.4753 4.04929 -1.02088 0
M  V30 49 N 5.9124 1.20967 1.01018 0
M  V30 50 C 6.8754 0.965918 2.07853 0
M  V30 51 C 7.8754 -0.0610545 1.60684 0
M  V30 52 O 9.0654 0.175681 1.73312 0
M  V30 53 C 6.1974 0.455513 3.37843 0
M  V30 54 H 7.3904 1.91365 2.3091 0
M  V30 55 H 4.9434 1.02594 1.17916 0
M  V30 56 H 5.6784 -0.497381 3.20463 0
M  V30 57 H 5.4634 1.19622 3.73407 0
M  V30 58 H 6.9534 0.304667 4.16487 0
M  V30 59 N 7.3905 -1.2043 1.01659 0
M  V30 60 C 8.6365 -1.90079 0.706963 0
M  V30 61 C 8.9695 -1.78648 -0.761474 0
M  V30 62 O 8.2445 -1.17069 -1.55323 0
M  V30 63 C 8.5275 -3.41469 1.14327 0
M  V30 64 C 8.3805 -3.61833 2.67201 0
M  V30 65 C 9.6995 -4.34261 0.714529 0
M  V30 66 H 6.8185 -0.690254 0.2583 0
M  V30 67 H 9.4605 -1.41826 1.26433 0
M  V30 68 H 7.6105 -3.82696 0.669056 0
M  V30 69 H 9.2825 -3.2986 3.22475 0
M  V30 70 H 7.5255 -3.05304 3.08175 0
M  V30 71 H 8.1965 -4.67955 2.92783 0
M  V30 72 H 10.6725 -4.00682 1.12221 0
M  V30 73 H 9.5485 -5.38806 1.04784 0
M  V30 74 H 9.8095 -4.40431 -0.383799 0
M  V30 75 N 8.8686 -0.792821 -1.36206 0
M  V30 76 C 10.0966 -0.378825 -2.03402 0
M  V30 77 C 10.5116 1.00586 -1.59774 0
M  V30 78 O 9.8686 1.64574 -0.788764 0
M  V30 79 C 9.9196 -0.43683 -3.58851 0
M  V30 80 O 9.6406 -1.76691 -4.00889 0
M  V30 81 C 11.1416 -0.0138943 -4.43298 0
M  V30 82 H 8.3616 -0.155673 -0.652692 0
M  V30 83 H 10.9056 -1.07261 -1.74113 0
M  V30 84 H 9.0606 0.208575 -3.86838 0
M  V30 85 H 9.4746 -1.72011 -4.95492 0
M  V30 86 H 10.9486 -0.105615 -5.51899 0
M  V30 87 H 11.4256 1.03915 -4.2673 0
M  V30 88 H 12.0316 -0.63192 -4.20579 0
M  V30 89 N 10.3467 1.47872 -0.545128 0
M  V30 90 C 11.5947 2.02093 -0.016553 0
M  V30 91 C 11.9157 1.42305 1.3332 0
M  V30 92 O 11.1857 0.593853 1.86682 0
M  V30 93 H 9.7657 0.746993 -0.00313038 0
M  V30 94 H 12.4277 1.81414 -0.712397 0
M  V30 95 H 11.5237 3.11996 0.0805422 0
M  V30 96 N 11.8248 0.280983 1.55075 0
M  V30 97 C 12.7568 -0.637268 2.20163 0
M  V30 98 C 13.7698 -1.11298 1.18813 0
M  V30 99 O 14.9588 -1.03388 1.4551 0
M  V30 100 C 12.0588 -1.88199 2.81841 0
M  V30 101 C 11.2318 -1.55211 4.08936 0
M  V30 102 C 10.2908 -2.64991 4.54606 0
M  V30 103 O 9.3168 -2.30929 5.2025 0
M  V30 104 N 10.5188 -3.95161 4.25238 0
M  V30 105 H 13.2838 -0.0801694 2.99593 0
M  V30 106 H 10.8448 0.102329 1.61576 0
M  V30 107 H 12.8368 -2.60948 3.09335 0
M  V30 108 H 11.4068 -2.34799 2.06369 0
M  V30 109 H 10.6268 -0.658185 3.88666 0
M  V30 110 H 11.9148 -1.30681 4.91732 0
M  V30 111 H 11.3128 -4.25653 3.72607 0
M  V30 112 H 9.8698 -4.6427 4.5749 0
M  V30 113 N 13.3029 -1.57598 0.00835791 0
M  V30 114 C 14.7189 -1.55764 -0.347822 0
M  V30 115 C 14.9189 -1.01186 -1.74252 0
M  V30 116 O 13.9749 -0.649371 -2.44007 0
M  V30 117 C 15.2879 -2.99927 -0.215407 0
M  V30 118 C 16.8359 -3.11656 -0.289725 0
M  V30 119 C 17.3109 -4.57621 -0.18634 0
M  V30 120 N 18.8019 -4.62557 -0.243978 0
M  V30 121 C 19.5369 -5.73094 -0.18745 0
M  V30 122 N 19.0329 -6.92753 -0.0810331 0
M  V30 123 N 20.8259 -5.61588 -0.239925 0
M  V30 124 H 12.9769 -1.91411 0.92062 0
M  V30 125 H 15.2399 -0.879562 0.353659 0
M  V30 126 H 14.9459 -3.43729 0.744512 0
M  V30 127 H 14.8199 -3.63865 -0.994097 0
M  V30 128 H 17.2069 -2.67779 -1.24009 0
M  V30 129 H 17.2879 -2.5048 0.51898 0
M  V30 130 H 16.9319 -5.02174 0.760519 0
M  V30 131 H 16.8619 -5.16752 -1.01364 0
M  V30 132 H 19.3529 -3.76481 -0.327217 0
M  V30 133 H 19.6659 -7.72787 -0.0440241 0
M  V30 134 H 18.0109 -6.94984 -0.0465419 0
M  V30 135 H 21.2019 -4.66996 -0.321317 0
M  V30 136 H 21.3749 -6.47714 -0.192407 0
M  V30 137 N 14.781 0.264519 -1.55364 0
M  V30 138 C 16.192 0.834936 -1.6699 0
M  V30 139 C 16.543 1.86718 -0.602552 0
M  V30 140 O 15.668 2.14899 0.254425 0
M  V30 141 C 16.263 1.5212 -3.02729 0
M  V30 142 C 14.822 2.03954 -3.16354 0
M  V30 143 C 13.969 0.884498 -2.62815 0
M  V30 144 H 16.92 0.0406869 -1.58648 0
M  V30 145 H 16.941 2.38853 -2.96191 0
M  V30 146 H 16.453 0.769668 -3.80392 0
M  V30 147 H 14.554 2.82041 -2.43482 0
M  V30 148 H 14.667 2.24902 -4.23032 0
M  V30 149 H 13.031 1.2802 -2.20188 0
M  V30 150 H 13.814 0.14634 -3.42988 0
M  V30 151 N 16.2591 1.48442 0.529413 0
M  V30 152 C 17.1691 1.6569 1.66084 0
M  V30 153 C 18.1851 0.539432 1.65427 0
M  V30 154 O 19.3611 0.810572 1.84368 0
M  V30 155 C 16.4261 1.69315 3.02545 0
M  V30 156 C 15.4871 2.92694 3.14052 0
M  V30 157 C 14.7201 2.96137 4.44003 0
M  V30 158 O 14.9431 2.07973 5.31134 0
M  V30 159 O 13.8771 3.88312 4.59888 0
M  V30 160 H 17.7031 2.61483 1.54469 0
M  V30 161 H 15.2881 1.3185 0.702567 0
M  V30 162 H 17.1701 1.74217 3.83701 0
M  V30 163 H 15.8451 0.766966 3.14483 0
M  V30 164 H 14.7521 2.93324 2.32189 0
M  V30 165 H 16.0851 3.84699 3.0703 0
M  V30 166 N 17.7372 -0.778329 1.37039 0
M  V30 167 C 18.9652 -1.56734 1.35063 0
M  V30 168 C 19.3802 -1.88686 -0.0655597 0
M  V30 169 O 18.7372 -1.5096 -1.02554 0
M  V30 170 C 18.7882 -2.88163 2.18276 0
M  V30 171 O 18.5092 -2.57583 3.54376 0
M  V30 172 C 20.0102 -3.82422 2.24206 0
M  V30 173 H 17.2302 -0.485778 0.462883 0
M  V30 174 H 19.7742 -0.965185 1.8029 0
M  V30 175 H 17.9292 -3.44818 1.76576 0
M  V30 176 H 18.3432 -3.41699 3.97922 0
M  V30 177 H 19.8172 -4.71667 2.86765 0
M  V30 178 H 20.2942 -4.21078 1.24861 0
M  V30 179 H 20.9002 -3.31697 2.6619 0
M  V30 180 N 19.2153 -1.21501 -1.00376 0
M  V30 181 C 20.1783 -0.976927 -2.07337 0
M  V30 182 C 21.1783 0.0525322 -1.60714 0
M  V30 183 O 22.3683 -0.184869 -1.73216 0
M  V30 184 C 19.5003 -0.473423 -3.37597 0
M  V30 185 H 20.6933 -1.92587 -2.29892 0
M  V30 186 H 18.2463 -1.03217 -1.17371 0
M  V30 187 H 18.9813 0.480379 -3.20722 0
M  V30 188 H 18.7663 -1.216 -3.72768 0
M  V30 189 H 20.2563 -0.32675 -4.1632 0
M  V30 190 N 20.6934 1.19889 -1.02296 0
M  V30 191 C 21.6564 2.21116 -0.603351 0
M  V30 192 C 22.6564 1.5738 0.329884 0
M  V30 193 O 23.8464 1.73802 0.117702 0
M  V30 194 C 20.9784 3.40696 0.117992 0
M  V30 195 H 22.1714 2.59754 -1.49893 0
M  V30 196 H 19.7244 1.33463 -0.813468 0
M  V30 197 H 20.4594 3.07569 1.0282 0
M  V30 198 H 20.2444 3.88188 -0.552511 0
M  V30 199 H 21.7344 4.15692 0.398696 0
M  V30 200 N 22.1715 0.800033 1.35784 0
M  V30 201 C 23.1345 0.211565 2.28221 0
M  V30 202 C 24.1345 -0.59728 1.49296 0
M  V30 203 O 25.3245 -0.416721 1.69142 0
M  V30 204 C 22.4565 -0.705846 3.33513 0
M  V30 205 H 23.6495 1.02677 2.81776 0
M  V30 206 H 21.2025 0.570211 1.45528 0
M  V30 207 H 21.9375 -1.54498 2.85133 0
M  V30 208 H 21.7225 -0.127655 3.91892 0
M  V30 209 H 23.2125 -1.11211 4.02519 0
M  V30 210 N 23.6496 -1.47581 0.552962 0
M  V30 211 C 24.5596 -2.33743 -0.200353 0
M  V30 212 C 25.5756 -1.47928 -0.916151 0
M  V30 213 O 26.7516 -1.80865 -0.885993 0
M  V30 214 C 23.8166 -3.24536 -1.21973 0
M  V30 215 C 22.8776 -4.26238 -0.511819 0
M  V30 216 C 22.1106 -5.12693 -1.48263 0
M  V30 217 O 22.3336 -5.01525 -2.71714 0
M  V30 218 O 21.2676 -5.93375 -1.00945 0
M  V30 219 H 25.0936 -2.9945 0.506304 0
M  V30 220 H 22.6786 -1.46071 0.313622 0
M  V30 221 H 24.5606 -3.80631 -1.80827 0
M  V30 222 H 23.2356 -2.61462 -1.90839 0
M  V30 223 H 22.1426 -3.73914 0.117799 0
M  V30 224 H 23.4756 -4.92014 0.135308 0
M  V30 225 N 25.1277 -0.289203 -1.54924 0
M  V30 226 C 26.0377 0.601863 -2.26748 0
M  V30 227 C 27.0537 1.15834 -1.2984 0
M  V30 228 O 28.2297 1.18564 -1.62802 0
M  V30 229 C 25.2947 1.76299 -2.98529 0
M  V30 230 C 24.3557 1.24178 -4.10948 0
M  V30 231 C 23.5887 2.34757 -4.79296 0
M  V30 232 O 23.8117 3.54411 -4.46933 0
M  V30 233 O 22.7457 2.02115 -5.66951 0
M  V30 234 H 26.5717 0.0195879 -3.03694 0
M  V30 235 H 24.1567 -0.0560868 -1.49295 0
M  V30 236 H 26.0387 2.43973 -3.43592 0
M  V30 237 H 24.7137 2.33209 -2.24488 0
M  V30 238 H 23.6207 0.531104 -3.70311 0
M  V30 239 H 24.9537 0.718252 -4.86931 0
M  V30 240 N 26.6058 1.57591 -0.0167156 0
M  V30 241 C 27.5688 2.08393 0.954204 0
M  V30 242 C 28.5688 0.996531 1.26198 0
M  V30 243 O 29.7588 1.25858 1.20438 0
M  V30 244 C 26.8908 2.5394 2.27436 0
M  V30 245 H 28.0838 2.95455 0.514451 0
M  V30 246 H 25.6368 1.54582 0.231089 0
M  V30 247 H 26.3718 1.70171 2.76066 0
M  V30 248 H 26.1568 3.33371 2.06412 0
M  V30 249 H 27.6468 2.93512 2.97053 0
M  V30 250 N 28.0839 -0.256276 1.55502 0
M  V30 251 C 29.3089 -1.00766 1.81276 0
M  V30 252 C 29.7339 -1.78524 0.59252 0
M  V30 253 O 29.0919 -1.75413 -0.45827 0
M  V30 254 C 29.1399 -1.92869 3.04687 0
M  V30 255 O 28.2439 -3.019 2.80945 0
M  V30 256 H 27.5849 -0.287224 0.598664 0
M  V30 257 H 30.1149 -0.280109 2.02674 0
M  V30 258 H 30.1249 -2.34511 3.33869 0
M  V30 259 H 28.7999 -1.35689 3.93143 0
M  V30 260 H 27.3769 -2.64454 2.62904 0
M  V30 261 N 29.562 -1.4872 -0.521534 0
M  V30 262 C 30.978 -1.35028 -0.850855 0
M  V30 263 C 31.178 -0.367712 -1.98116 0
M  V30 264 O 30.234 0.208037 -2.51642 0
M  V30 265 C 31.547 -2.75263 -1.21041 0
M  V30 266 C 33.095 -2.83813 -1.31981 0
M  V30 267 C 33.57 -4.24769 -1.71276 0
M  V30 268 N 35.061 -4.27482 -1.78363 0
M  V30 269 C 35.796 -5.33494 -2.1017 0
M  V30 270 N 35.292 -6.49775 -2.40343 0
M  V30 271 N 37.085 -5.20894 -2.11248 0
M  V30 272 H 29.236 -2.11214 0.22413 0
M  V30 273 H 31.499 -0.947252 0.0376439 0
M  V30 274 H 31.205 -3.48765 -0.453415 0
M  V30 275 H 31.079 -3.09327 -2.15863 0
M  V30 276 H 33.466 -2.10561 -2.06756 0
M  V30 277 H 33.547 -2.53358 -0.352596 0
M  V30 278 H 33.191 -4.9854 -0.970588 0
M  V30 279 H 33.121 -4.52673 -2.69062 0
M  V30 280 H 35.612 -3.43611 -1.57288 0
M  V30 281 H 35.925 -7.26402 -2.63743 0
M  V30 282 H 34.27 -6.53035 -2.37844 0
M  V30 283 H 37.461 -4.29065 -1.87139 0
M  V30 284 H 37.634 -6.03612 -2.35704 0
M  V30 285 N 31.0401 0.771051 -1.3745 0
M  V30 286 C 32.4511 1.34737 -1.29239 0
M  V30 287 C 32.8021 1.96109 0.0596908 0
M  V30 288 O 31.9271 1.93865 0.961534 0
M  V30 289 C 32.5221 2.44973 -2.34037 0
M  V30 290 C 31.0811 2.98372 -2.29458 0
M  V30 291 C 30.2281 1.71595 -2.17831 0
M  V30 292 H 33.1791 0.571256 -1.48062 0
M  V30 293 H 33.2001 3.24471 -1.98744 0
M  V30 294 H 32.7121 2.00276 -3.32432 0
M  V30 295 H 30.8131 3.47443 -1.34589 0
M  V30 296 H 30.9261 3.53939 -3.229 0
M  V30 297 H 29.2901 1.94547 -1.64388 0
M  V30 298 H 30.0731 1.29001 -3.18141 0
M  V30 299 N 32.5182 1.22032 0.997298 0
M  V30 300 C 33.4502 0.944263 2.08845 0
M  V30 301 C 34.4632 -0.0754663 1.62625 0
M  V30 302 O 35.6522 0.157994 1.77799 0
M  V30 303 C 32.7522 0.397723 3.36558 0
M  V30 304 C 31.9252 1.47362 4.11829 0
M  V30 305 C 30.9842 0.934951 5.17827 0
M  V30 306 O 30.0102 1.62016 5.45655 0
M  V30 307 N 31.2122 -0.245895 5.79979 0
M  V30 308 H 33.9772 1.88363 2.33109 0
M  V30 309 H 31.5382 1.12661 1.16272 0
M  V30 310 H 33.5302 0.0227771 4.04694 0
M  V30 311 H 32.1002 -0.446646 3.09393 0
M  V30 312 H 31.3202 2.02208 3.38386 0
M  V30 313 H 32.6082 2.19764 4.58891 0
M  V30 314 H 32.0062 -0.819475 5.59733 0
M  V30 315 H 30.5632 -0.562272 6.4937 0
M  V30 316 N 33.9963 -1.19345 1.0293 0
M  V30 317 C 35.2423 -1.89585 0.736824 0
M  V30 318 C 35.5973 -1.78148 -0.726703 0
M  V30 319 O 34.8903 -1.16332 -1.52242 0
M  V30 320 C 35.0843 -3.39292 1.12319 0
M  V30 321 C 34.9133 -3.65298 2.62273 0
M  V30 322 C 33.6833 -3.83304 3.29251 0
M  V30 323 C 35.8813 -3.6682 3.60482 0
M  V30 324 N 33.8633 -3.96944 4.68304 0
M  V30 325 C 35.2343 -3.86037 4.85155 0
M  V30 326 C 37.2893 -3.49848 3.54275 0
M  V30 327 C 35.9923 -3.9004 6.04369 0
M  V30 328 C 38.0183 -3.55129 4.72903 0
M  V30 329 C 37.3803 -3.74831 5.9639 0
M  V30 330 H 33.4793 -0.712856 0.321497 0
M  V30 331 H 36.0633 -1.43427 1.31669 0
M  V30 332 H 34.2343 -3.84172 0.571524 0
M  V30 333 H 35.9663 -3.97055 0.78292 0
M  V30 334 H 32.7213 -3.82211 2.79663 0
M  V30 335 H 33.1453 -4.07613 5.40538 0
M  V30 336 H 37.7873 -3.33572 2.59788 0
M  V30 337 H 35.5053 -4.05108 6.99223 0
M  V30 338 H 39.0913 -3.43287 4.69729 0
M  V30 339 H 37.9713 -3.78792 6.86649 0
M  V30 340 N 35.4744 -0.807222 -1.35358 0
M  V30 341 C 36.4374 -0.223665 -2.28106 0
M  V30 342 C 37.4374 0.589354 -1.4961 0
M  V30 343 O 38.6274 0.407745 -1.69361 0
M  V30 344 C 35.7594 0.688149 -3.33882 0
M  V30 345 H 36.9524 -1.04169 -2.81227 0
M  V30 346 H 34.5054 -0.577921 -1.45223 0
M  V30 347 H 35.2404 1.52984 -2.85948 0
M  V30 348 H 35.0254 0.10687 -3.91954 0
M  V30 349 H 36.5154 1.09075 -4.03104 0
M  V30 350 N 36.9525 1.47285 -0.560781 0
M  V30 351 C 38.3635 1.86258 -0.128343 0
M  V30 352 C 38.7145 1.46699 1.30284 0
M  V30 353 O 37.8395 0.871698 1.98067 0
M  V30 354 C 38.4345 3.38044 -0.22614 0
M  V30 355 C 36.9935 3.76096 0.151283 0
M  V30 356 C 36.1405 2.71335 -0.572084 0
M  V30 357 H 39.0915 1.38752 -0.770297 0
M  V30 358 H 39.1125 3.76441 0.554322 0
M  V30 359 H 38.6245 3.66806 -1.26788 0
M  V30 360 H 36.7255 3.52951 1.19399 0
M  V30 361 H 36.8385 4.78641 -0.209765 0
M  V30 362 H 35.2025 2.54696 -0.0147653 0
M  V30 363 H 35.9855 3.02938 -1.61504 0
M  V30 364 N 38.4306 0.297415 1.54768 0
M  V30 365 C 39.8416 -0.195947 1.85669 0
M  V30 366 C 40.1926 -1.53707 1.21937 0
M  V30 367 O 39.3176 -2.10164 0.515754 0
M  V30 368 C 39.9126 -0.362318 3.36857 0
M  V30 369 C 38.4716 -0.799901 3.67802 0
M  V30 370 C 37.6186 0.0938578 2.77141 0
M  V30 371 H 40.5696 0.518538 1.4999 0
M  V30 372 H 40.5906 -1.19745 3.61167 0
M  V30 373 H 40.1026 0.613921 3.83214 0
M  V30 374 H 38.2036 -1.78682 3.26961 0
M  V30 375 H 38.3166 -0.621773 4.75048 0
M  V30 376 H 36.6806 -0.426254 2.51108 0
M  V30 377 H 37.4636 1.06639 3.26318 0
M  V30 378 N 39.9087 -1.5758 0.0250728 0
M  V30 379 C 41.1857 -1.82917 -0.692873 0
M  V30 380 C 41.5657 -0.908137 -1.90568 0
M  V30 381 O 40.9137 0.0372298 -2.2847 0
M  V30 382 C 41.1237 -3.32034 -1.07492 0
M  V30 383 C 42.4717 -3.98406 -1.46826 0
M  V30 384 O 43.4957 -3.36505 -1.16801 0
M  V30 385 O 42.3547 -5.07497 -2.02754 0
M  V30 386 H 39.4487 -0.754079 -0.33955 0
M  V30 387 H 41.9947 -1.69619 0.0524456 0
M  V30 388 H 40.7667 -3.90728 -0.211552 0
M  V30 389 H 40.3897 -3.50424 -1.87854 0
M  V30 390 N 41.3868 0.248026 -1.55636 0
M  V30 391 C 42.3368 1.30994 -1.86614 0
M  V30 392 C 43.3208 1.43543 -0.726918 0
M  V30 393 O 44.5128 1.46804 -0.988818 0
M  V30 394 C 41.6418 2.6656 -2.16335 0
M  V30 395 C 40.7278 2.58019 -3.36581 0
M  V30 396 N 41.1188 2.1911 -4.55878 0
M  V30 397 C 39.4168 2.89035 -3.39669 0
M  V30 398 C 40.1178 2.21174 -5.38012 0
M  V30 399 N 39.0938 2.60632 -4.77045 0
M  V30 400 H 42.8958 0.999583 -2.76379 0
M  V30 401 H 40.4098 0.456652 -1.55848 0
M  V30 402 H 42.4068 3.43194 -2.36692 0
M  V30 403 H 41.0668 2.98463 -1.27867 0
M  V30 404 H 42.0778 1.90672 -4.81523 0
M  V30 405 H 38.7548 3.25485 -2.61469 0
M  V30 406 H 40.1448 1.9344 -6.43452 0
M  V30 407 N 42.8649 1.48995 0.513639 0
M  V30 408 C 44.1049 1.59452 1.27885 0
M  V30 409 C 44.4689 0.269479 1.90099 0
M  V30 410 O 45.6699 0.249139 2.67643 0
M  V30 411 C 43.9409 2.71277 2.32688 0
M  V30 412 S 45.4999 3.01604 3.18717 0
M  V30 413 H 42.3179 0.562565 0.434789 0
M  V30 414 H 44.9199 1.86595 0.583301 0
M  V30 415 H 43.6239 3.66089 1.8549 0
M  V30 416 H 43.1549 2.46086 3.06929 0
M  V30 417 H 45.1699 2.42155 4.331 0
M  V30 418 N 44.343 -0.763751 1.37857 0
M  V30 419 C 45.275 -1.88664 1.30148 0
M  V30 420 C 46.288 -1.61365 0.215685 0
M  V30 421 O 47.477 -1.72134 0.472459 0
M  V30 422 C 44.577 -3.24075 0.991396 0
M  V30 423 C 43.75 -3.78958 2.18426 0
M  V30 424 C 42.809 -4.92862 1.8432 0
M  V30 425 O 41.835 -5.08027 2.56704 0
M  V30 426 N 43.037 -5.75071 0.792081 0
M  V30 427 H 45.802 -1.95791 2.26905 0
M  V30 428 H 43.363 -0.943226 1.31586 0
M  V30 429 H 45.355 -3.97804 0.743935 0
M  V30 430 H 43.925 -3.12399 0.112122 0
M  V30 431 H 43.145 -2.96913 2.59299 0
M  V30 432 H 44.433 -4.12357 2.98058 0
M  V30 433 H 43.831 -5.65375 0.191595 0
M  V30 434 H 42.388 -6.48991 0.60449 0
M  V30 435 N 45.8211 -1.22559 -0.990812 0
M  V30 436 C 46.7841 -0.998863 -2.0629 0
M  V30 437 C 47.7841 0.0354834 -1.60761 0
M  V30 438 O 48.9741 -0.203231 -1.7301 0
M  V30 439 C 46.1061 -0.509203 -3.37076 0
M  V30 440 H 47.2991 -1.95014 -2.27837 0
M  V30 441 H 44.8521 -1.04456 -1.16269 0
M  V30 442 H 45.5871 0.446335 -3.21214 0
M  V30 443 H 45.3721 -1.25547 -3.71457 0
M  V30 444 H 46.8621 -0.370888 -4.1595 0
M  V30 445 N 47.2992 1.18797 -1.03562 0
M  V30 446 C 48.2312 2.21731 -0.580337 0
M  V30 447 C 49.2442 1.59051 0.347349 0
M  V30 448 O 50.4332 1.77929 0.142669 0
M  V30 449 C 47.5332 3.38459 0.172805 0
M  V30 450 C 46.7062 4.3072 -0.761496 0
M  V30 451 C 45.7652 5.26174 -0.0525547 0
M  V30 452 O 44.7912 5.65108 -0.681333 0
M  V30 453 N 45.9932 5.67624 1.21586 0
M  V30 454 H 48.7582 2.61417 -1.46565 0
M  V30 455 H 46.3192 1.33531 -0.915476 0
M  V30 456 H 48.3112 3.99335 0.656793 0
M  V30 457 H 46.8812 2.97507 0.959602 0
M  V30 458 H 46.1012 3.67525 -1.42544 0
M  V30 459 H 47.3892 4.89267 -1.39626 0
M  V30 460 H 46.7872 5.38038 1.74732 0
M  V30 461 H 45.3442 6.30721 1.64421 0
M  V30 462 N 48.7773 0.814389 1.34928 0
M  V30 463 C 49.7403 0.235759 2.27984 0
M  V30 464 C 50.7403 -0.581412 1.49921 0
M  V30 465 O 51.9303 -0.398758 1.69575 0
M  V30 466 C 49.0623 -0.670433 3.34242 0
M  V30 467 H 50.2553 1.05659 2.80671 0
M  V30 468 H 47.8083 0.585614 1.44915 0
M  V30 469 H 48.5433 -1.51466 2.86755 0
M  V30 470 H 48.3283 -0.0860822 3.92005 0
M  V30 471 H 49.8183 -1.06935 4.03676 0
M  V30 472 N 50.2554 -1.46986 0.568584 0
M  V30 473 C 51.2184 -2.28624 -0.162366 0
M  V30 474 C 52.2184 -1.37596 -0.832103 0
M  V30 475 O 53.4084 -1.60115 -0.68622 0
M  V30 476 C 50.5404 -3.17596 -1.23878 0
M  V30 477 H 51.7334 -2.94722 0.554899 0
M  V30 478 H 49.2864 -1.52863 0.325976 0
M  V30 479 H 50.0214 -2.56214 -1.98808 0
M  V30 480 H 49.8064 -3.846 -0.763219 0
M  V30 481 H 51.2964 -3.79078 -1.75185 0
M  V30 482 N 51.7335 -0.305618 -1.54608 0
M  V30 483 C 52.6965 0.555591 -2.22364 0
M  V30 484 C 53.6965 1.05768 -1.21119 0
M  V30 485 O 54.8865 0.952972 -1.45822 0
M  V30 486 C 52.0185 1.76974 -2.91364 0
M  V30 487 H 53.2115 -0.0364572 -2.99878 0
M  V30 488 H 50.7645 -0.0565007 -1.56198 0
M  V30 489 H 51.4995 2.40151 -2.17941 0
M  V30 490 H 51.2845 1.41732 -3.65588 0
M  V30 491 H 52.7745 2.38148 -3.43038 0
M  V30 492 N 53.2116 1.57565 -0.0334293 0
M  V30 493 C 54.4596 1.91598 0.642999 0
M  V30 494 C 54.7806 0.910847 1.7242 0
M  V30 495 O 54.0506 -0.0469931 1.95844 0
M  V30 496 H 52.6306 0.707228 0.240496 0
M  V30 497 H 55.2926 1.94726 -0.0822488 0
M  V30 498 H 54.3886 2.92336 1.09298 0
M  V30 499 N 54.6897 -0.239769 1.55765 0
M  V30 500 C 55.6197 -1.30052 1.9393 0
M  V30 501 C 56.6007 -1.49839 0.805132 0
M  V30 502 O 57.7857 -1.62328 1.06599 0
M  V30 503 C 54.9157 -2.65391 2.2402 0
M  V30 504 C 53.8697 -2.60289 3.39755 0
M  V30 505 C 53.1957 -3.99489 3.55405 0
M  V30 506 C 54.4957 -2.16654 4.75246 0
M  V30 507 H 56.1897 -0.983573 2.82783 0
M  V30 508 H 53.7357 -0.471701 1.36055 0
M  V30 509 H 55.6887 -3.3974 2.49308 0
M  V30 510 H 54.4127 -2.98736 1.32 0
M  V30 511 H 53.0717 -1.88398 3.14487 0
M  V30 512 H 52.7197 -4.30112 2.60793 0
M  V30 513 H 52.4197 -3.96962 4.33238 0
M  V30 514 H 53.9437 -4.75528 3.83022 0
M  V30 515 H 55.3577 -2.80737 4.99859 0
M  V30 516 H 53.7547 -2.25223 5.56232 0
M  V30 517 H 54.8247 -1.11835 4.71827 0
M  V30 518 N 56.1678 -1.49265 -0.50573 0
M  V30 519 C 57.4158 -1.582 -1.25766 0
M  V30 520 C 57.7368 -0.268482 -1.93143 0
M  V30 521 O 57.0068 0.711833 -1.8251 0
M  V30 522 H 55.5868 -0.582873 -0.467191 0
M  V30 523 H 58.2488 -1.85865 -0.586525 0
M  V30 524 H 57.3448 -2.37563 -2.02412 0
M  V30 525 N 57.6459 0.756429 -1.3826 0
M  V30 526 C 58.9229 1.50584 -1.24835 0
M  V30 527 C 59.3029 2.10556 0.151485 0
M  V30 528 O 58.6509 1.96825 1.1607 0
M  V30 529 C 58.8609 2.57448 -2.3563 0
M  V30 530 C 60.2089 3.24429 -2.73917 0
M  V30 531 O 61.2329 2.67751 -2.34921 0
M  V30 532 O 60.0919 4.26937 -3.41156 0
M  V30 533 H 57.1859 0.667664 -0.48801 0
M  V30 534 H 59.7319 0.792083 -1.5008 0
M  V30 535 H 58.5039 2.11362 -3.29305 0
M  V30 536 H 58.1269 3.36408 -2.11933 0
M  V30 537 N 59.124 1.23083 0.984299 0
M  V30 538 C 60.372 1.05848 1.72165 0
M  V30 539 C 60.693 -0.406049 1.90726 0
M  V30 540 O 59.963 -1.29139 1.47309 0
M  V30 541 H 58.543 0.388685 0.637913 0
M  V30 542 H 61.205 1.54736 1.18503 0
M  V30 543 H 60.301 1.54327 2.71274 0
M  V30 544 N 60.6021 -1.18246 1.0419 0
M  V30 545 C 61.5121 -2.25574 0.644476 0
M  V30 546 C 62.5281 -1.70845 -0.329826 0
M  V30 547 O 63.7041 -2.00554 -0.184443 0
M  V30 548 C 60.7691 -3.46697 0.014877 0
M  V30 549 C 59.8301 -4.16554 1.03834 0
M  V30 550 C 59.0631 -5.31894 0.438692 0
M  V30 551 O 59.2861 -5.65385 -0.754752 0
M  V30 552 O 58.2201 -5.90459 1.168 0
M  V30 553 H 62.0461 -2.61836 1.53869 0
M  V30 554 H 59.6311 -1.25352 0.812854 0
M  V30 555 H 61.5131 -4.20062 -0.335538 0
M  V30 556 H 60.1881 -3.12255 -0.853138 0
M  V30 557 H 59.0951 -3.45251 1.44057 0
M  V30 558 H 60.4281 -4.54998 1.87716 0
M  V30 559 N 62.0802 -0.821533 -1.34494 0
M  V30 560 C 63.3572 -0.33159 -1.92769 0
M  V30 561 C 63.7372 1.18088 -1.74981 0
M  V30 562 O 63.0852 1.98733 -1.12772 0
M  V30 563 C 63.2952 -0.759398 -3.40638 0
M  V30 564 C 64.6432 -0.757433 -4.1779 0
M  V30 565 O 65.6672 -0.70189 -3.49216 0
M  V30 566 O 64.5262 -0.829361 -5.4017 0
M  V30 567 H 61.6202 -0.0902502 -0.822061 0
M  V30 568 H 64.1662 -0.906231 -1.43477 0
M  V30 569 H 62.9382 -1.8012 -3.47379 0
M  V30 570 H 62.5612 -0.160378 -3.97276 0
M  V30 571 N 63.5583 1.46682 -0.576371 0
M  V30 572 C 64.5213 2.28707 0.150239 0
M  V30 573 C 65.5213 1.38035 0.824794 0
M  V30 574 O 66.7113 1.60476 0.677719 0
M  V30 575 C 63.8433 3.18248 1.22192 0
M  V30 576 H 65.0363 2.94423 -0.570521 0
M  V30 577 H 62.5893 1.52688 -0.334078 0
M  V30 578 H 63.3243 2.57265 1.97447 0
M  V30 579 H 63.1093 3.85 0.742812 0
M  V30 580 H 64.5993 3.80001 1.73172 0
M  V30 581 N 65.0364 0.313813 1.54444 0
M  V30 582 C 66.4474 -0.176243 1.85866 0
M  V30 583 C 66.7984 -1.52405 1.23561 0
M  V30 584 O 65.9234 -2.09605 0.538016 0
M  V30 585 C 66.5184 -0.32657 3.37222 0
M  V30 586 C 65.0774 -0.760846 3.6863 0
M  V30 587 C 64.2244 0.123247 2.77026 0
M  V30 588 H 67.1754 0.534418 1.49431 0
M  V30 589 H 67.1964 -1.15908 3.62416 0
M  V30 590 H 66.7084 0.654531 3.82541 0
M  V30 591 H 64.8094 -1.75204 3.28838 0
M  V30 592 H 64.9224 -0.571353 4.75681 0
M  V30 593 H 63.2864 -0.399597 2.51546 0
M  V30 594 H 64.0694 1.10094 3.25168 0
M  V30 595 N 66.5145 -1.57545 0.0417849 0
M  V30 596 C 67.7605 -1.92601 -0.635021 0
M  V30 597 C 68.0935 -0.919627 -1.71045 0
M  V30 598 O 67.3685 0.0557892 -1.9442 0
M  V30 599 C 67.6515 -3.38085 -1.23979 0
M  V30 600 C 67.5045 -4.49467 -0.173057 0
M  V30 601 C 68.8235 -3.83776 -2.15416 0
M  V30 602 H 65.9425 -0.700397 -0.229374 0
M  V30 603 H 68.5845 -1.89728 0.101633 0
M  V30 604 H 66.7345 -3.40664 -1.86762 0
M  V30 605 H 68.4065 -4.59018 0.458312 0
M  V30 606 H 66.6495 -4.30909 0.499996 0
M  V30 607 H 67.3205 -5.48323 -0.636054 0
M  V30 608 H 69.7965 -3.83013 -1.62605 0
M  V30 609 H 68.6725 -4.8624 -2.54679 0
M  V30 610 H 68.9335 -3.19998 -3.05047 0
M  V30 611 N 67.9926 0.231505 -1.5589 0
M  V30 612 C 69.4086 0.580748 -1.48659 0
M  V30 613 C 69.6086 1.87617 -0.73498 0
M  V30 614 O 68.6646 2.51046 -0.270586 0
M  V30 615 C 69.9776 0.669202 -2.93159 0
M  V30 616 C 71.5256 0.760499 -3.03621 0
M  V30 617 C 72.0006 0.880383 -4.49459 0
M  V30 618 N 73.4916 0.944861 -4.53461 0
M  V30 619 C 74.2266 1.05716 -5.63571 0
M  V30 620 N 73.7226 1.13403 -6.83456 0
M  V30 621 N 75.5156 1.09152 -5.514 0
M  V30 622 H 67.6666 -0.618695 -2.03189 0
M  V30 623 H 69.9296 -0.215728 -0.923128 0
M  V30 624 H 69.6356 -0.212904 -3.51055 0
M  V30 625 H 69.5096 1.5361 -3.44505 0
M  V30 626 H 71.8966 1.63305 -2.45796 0
M  V30 627 H 71.9776 -0.131864 -2.5546 0
M  V30 628 H 71.6216 0.0123284 -5.07899 0
M  V30 629 H 71.5516 1.78802 -4.95316 0
M  V30 630 H 74.0426 0.896176 -3.6712 0
M  V30 631 H 74.3556 1.21921 -7.63122 0
M  V30 632 H 72.7006 1.10333 -6.86186 0
M  V30 633 H 75.8916 1.02805 -4.56671 0
M  V30 634 H 76.0646 1.17558 -6.37247 0
M  V30 635 N 69.4707 1.49531 0.497807 0
M  V30 636 C 70.8817 1.52344 1.07927 0
M  V30 637 C 71.2327 0.311469 1.93712 0
M  V30 638 O 70.3577 -0.578405 2.08527 0
M  V30 639 C 70.9527 2.76062 1.96405 0
M  V30 640 C 69.5117 2.81643 2.49709 0
M  V30 641 C 68.6587 2.46299 1.27404 0
M  V30 642 H 71.6097 1.56182 0.281576 0
M  V30 643 H 71.6307 2.56405 2.81135 0
M  V30 644 H 71.1427 3.64254 1.33943 0
M  V30 645 H 69.2437 1.97739 3.15801 0
M  V30 646 H 69.3567 3.83891 2.86643 0
M  V30 647 H 67.7207 1.98148 1.60029 0
M  V30 648 H 68.5037 3.36769 0.66645 0
M  V30 649 N 70.9488 -0.749086 1.3866 0
M  V30 650 C 71.8788 -1.8764 1.38973 0
M  V30 651 C 72.8598 -1.68178 0.255004 0
M  V30 652 O 74.0448 -1.88704 0.458754 0
M  V30 653 C 71.1748 -3.25222 1.21851 0
M  V30 654 C 70.1288 -3.59295 2.32575 0
M  V30 655 C 69.4548 -4.95663 2.00555 0
M  V30 656 C 70.7548 -3.63709 3.7485 0
M  V30 657 H 72.4488 -1.87635 2.3331 0
M  V30 658 H 69.9948 -0.901329 1.12303 0
M  V30 659 H 71.9478 -4.03746 1.20695 0
M  V30 660 H 70.6718 -3.25719 0.239775 0
M  V30 661 H 69.3308 -2.83093 2.32925 0
M  V30 662 H 68.9788 -4.92724 1.01154 0
M  V30 663 H 68.6788 -5.19429 2.74714 0
M  V30 664 H 70.2028 -5.7656 2.01024 0
M  V30 665 H 71.6168 -4.32338 3.76506 0
M  V30 666 H 70.0138 -3.98986 4.48252 0
M  V30 667 H 71.0838 -2.63834 4.06841 0
M  V30 668 N 72.4269 -1.23603 -0.977757 0
M  V30 669 C 73.6669 -1.08148 -1.73446 0
M  V30 670 C 74.0309 0.374785 -1.88307 0
M  V30 671 O 75.2319 0.650588 -2.60808 0
M  V30 672 C 73.5029 -1.78991 -3.0935 0
M  V30 673 S 75.0619 -1.79141 -4.00567 0
M  V30 674 H 71.8799 -0.386987 -0.596458 0
M  V30 675 H 74.4819 -1.5678 -1.16792 0
M  V30 676 H 73.1859 -2.8408 -2.96187 0
M  V30 677 H 72.7169 -1.30651 -3.71071 0
M  V30 678 H 74.7319 -0.851892 -4.88833 0
M  V30 679 N 73.905 1.17692 -1.04816 0
M  V30 680 C 74.852 2.21581 -0.645797 0
M  V30 681 C 75.822 1.62367 0.350159 0
M  V30 682 O 77.007 1.89254 0.242433 0
M  V30 683 C 74.147 3.45092 -0.0227568 0
M  V30 684 C 73.26 4.18613 -1.06709 0
M  V30 685 C 72.395 5.29602 -0.411767 0
M  V30 686 C 71.434 5.94904 -1.44067 0
M  V30 687 N 70.571 6.97414 -0.809781 0
M  V30 688 H 75.411 2.55353 -1.5362 0
M  V30 689 H 72.948 1.25438 -0.768364 0
M  V30 690 H 74.906 4.15679 0.35588 0
M  V30 691 H 73.536 3.11917 0.831122 0
M  V30 692 H 72.588 3.46779 -1.5636 0
M  V30 693 H 73.9 4.63293 -1.84827 0
M  V30 694 H 73.054 6.06696 0.0206623 0
M  V30 695 H 71.793 4.86045 0.401438 0
M  V30 696 H 70.798 5.16544 -1.88316 0
M  V30 697 H 72.023 6.40542 -2.25571 0
M  V30 698 H 69.969 6.55998 -0.0170186 0
M  V30 699 H 69.886 7.40386 -1.52856 0
M  V30 700 H 71.154 7.78463 -0.401999 0
M  V30 701 N 75.3831 0.828654 1.34056 0
M  V30 702 C 76.7941 0.477534 1.8049 0
M  V30 703 C 77.1451 -1.00258 1.6865 0
M  V30 704 O 76.2701 -1.78057 1.22982 0
M  V30 705 C 76.8651 0.860018 3.27703 0
M  V30 706 C 75.4241 0.561185 3.72193 0
M  V30 707 C 74.5711 1.07385 2.55663 0
M  V30 708 H 77.5221 1.0183 1.21722 0
M  V30 709 H 77.5431 0.166038 3.80138 0
M  V30 710 H 77.0551 1.93731 3.36288 0
M  V30 711 H 75.1561 -0.506465 3.69142 0
M  V30 712 H 75.2691 1.10926 4.66082 0
M  V30 713 H 73.6331 0.495149 2.49841 0
M  V30 714 H 74.4161 2.15771 2.67016 0
M  V30 715 N 76.8612 -1.46375 0.584142 0
M  V30 716 C 78.2772 -1.57694 0.245929 0
M  V30 717 C 78.4772 -1.57903 -1.25175 0
M  V30 718 O 77.5332 -1.49676 -2.03355 0
M  V30 719 C 78.8462 -2.87028 0.896402 0
M  V30 720 C 80.3942 -3.00662 0.870127 0
M  V30 721 C 80.8692 -4.32734 1.50017 0
M  V30 722 N 82.3602 -4.39436 1.46458 0
M  V30 723 C 83.0952 -5.40248 1.92144 0
M  V30 724 N 82.5912 -6.47726 2.4581 0
M  V30 725 N 84.3842 -5.31459 1.83052 0
M  V30 726 H 76.5352 -1.44483 1.55687 0
M  V30 727 H 78.7982 -0.689291 0.650831 0
M  V30 728 H 78.5042 -2.9269 1.95002 0
M  V30 729 H 78.3782 -3.75014 0.405486 0
M  V30 730 H 80.7652 -2.94581 -0.174871 0
M  V30 731 H 80.8462 -2.14148 1.39908 0
M  V30 732 H 80.4902 -4.39573 2.54437 0
M  V30 733 H 80.4202 -5.18025 0.946432 0
M  V30 734 H 82.9112 -3.62367 1.07231 0
M  V30 735 H 83.2242 -7.20863 2.78525 0
M  V30 736 H 81.5692 -6.48542 2.49836 0
M  V30 737 H 84.7602 -4.46396 1.40883 0
M  V30 738 H 84.9332 -6.09881 2.18973 0
M  V30 739 N 78.3393 -0.321999 -1.54275 0
M  V30 740 C 79.5873 0.280489 -2.00144 0
M  V30 741 C 79.9083 1.52777 -1.21178 0
M  V30 742 O 79.1783 1.9338 -0.313187 0
M  V30 743 H 77.7583 0.106632 -0.73935 0
M  V30 744 H 80.4203 -0.438184 -1.8991 0
M  V30 745 H 79.5163 0.537972 -3.07428 0
M  V30 746 N 79.8174 1.5752 -0.0501392 0
M  V30 747 C 81.0664 1.91827 0.623328 0
M  V30 748 C 81.3794 0.930222 1.72065 0
M  V30 749 O 82.5854 1.1653 2.4522 0
M  V30 750 C 81.0414 3.40692 1.16003 0
M  V30 751 C 80.6494 4.479 0.0948811 0
M  V30 752 C 82.3934 3.84034 1.80881 0
M  V30 753 C 80.3004 5.87879 0.644411 0
M  V30 754 H 79.2304 0.715918 0.236596 0
M  V30 755 H 81.8814 1.83115 -0.118861 0
M  V30 756 H 80.2634 3.44405 1.9545 0
M  V30 757 H 81.4374 4.55775 -0.678675 0
M  V30 758 H 79.7524 4.13892 -0.45637 0
M  V30 759 H 82.3494 4.85984 2.22988 0
M  V30 760 H 82.6924 3.20225 2.6601 0
M  V30 761 H 83.2254 3.82833 1.0809 0
M  V30 762 H 79.9644 6.55282 -0.169229 0
M  V30 763 H 79.4844 5.83567 1.38598 0
M  V30 764 H 81.1634 6.37098 1.12763 0
M  V30 765 N 81.2955 -0.223234 1.56011 0
M  V30 766 C 82.5355 -0.954962 1.8072 0
M  V30 767 C 82.8995 -1.81598 0.623384 0
M  V30 768 O 84.1005 -2.58132 0.749745 0
M  V30 769 C 82.3715 -1.77313 3.10314 0
M  V30 770 S 83.9305 -2.56073 3.56332 0
M  V30 771 H 80.7485 -0.320812 0.634508 0
M  V30 772 H 83.3505 -0.220686 1.9425 0
M  V30 773 H 82.0545 -1.13071 3.94516 0
M  V30 774 H 81.5855 -2.54974 2.99586 0
M  V30 775 H 83.6005 -3.79619 3.19536 0
M  V30 776 N 82.7736 -1.49793 -0.48987 0
M  V30 777 C 83.9986 -1.63836 -1.27172 0
M  V30 778 C 84.4236 -0.31402 -1.8546 0
M  V30 779 O 83.7816 0.719803 -1.66399 0
M  V30 780 C 83.8296 -2.71797 -2.36978 0
M  V30 781 O 82.9336 -2.31744 -3.41128 0
M  V30 782 H 82.2746 -0.547997 -0.37496 0
M  V30 783 H 84.8046 -1.96053 -0.585191 0
M  V30 784 H 84.8146 -2.94305 -2.82575 0
M  V30 785 H 83.4896 -3.67923 -1.93921 0
M  V30 786 H 82.0666 -2.1961 -3.01373 0
M  V30 787 N 84.2517 0.741722 -1.39055 0
M  V30 788 C 85.6677 1.04638 -1.20512 0
M  V30 789 C 85.8677 2.01405 -0.0620218 0
M  V30 790 O 84.9237 2.45547 0.588457 0
M  V30 791 C 86.2367 1.6151 -2.53643 0
M  V30 792 C 87.7847 1.73623 -2.6043 0
M  V30 793 C 88.2597 2.33906 -3.93767 0
M  V30 794 N 89.7507 2.41323 -3.9537 0
M  V30 795 C 90.4857 2.88888 -4.95309 0
M  V30 796 N 89.9817 3.36401 -6.05645 0
M  V30 797 N 91.7747 2.88037 -4.82692 0
M  V30 798 H 83.9257 0.0998155 -2.12165 0
M  V30 799 H 86.1887 0.106907 -0.941953 0
M  V30 800 H 85.8947 0.978739 -3.37807 0
M  V30 801 H 85.7687 2.60411 -2.72885 0
M  V30 802 H 88.1557 2.36384 -1.76655 0
M  V30 803 H 88.2367 0.733945 -2.45045 0
M  V30 804 H 87.8807 1.71776 -4.7797 0
M  V30 805 H 87.8107 3.34799 -4.06469 0
M  V30 806 H 90.3017 2.07734 -3.15682 0
M  V30 807 H 90.6147 3.71186 -6.77821 0
M  V30 808 H 88.9597 3.34427 -6.09248 0
M  V30 809 H 92.1507 2.50237 -3.95599 0
M  V30 810 H 92.3237 3.24792 -5.60726 0
M  V30 811 N 85.7298 1.2412 0.971189 0
M  V30 812 C 86.6928 1.03156 2.04674 0
M  V30 813 C 87.6928 -0.00990322 1.60797 0
M  V30 814 O 88.8828 0.230729 1.72665 0
M  V30 815 C 86.0148 0.562765 3.36223 0
M  V30 816 H 87.2078 1.98614 2.24705 0
M  V30 817 H 84.7608 1.06293 1.14593 0
M  V30 818 H 85.4958 -0.395176 3.21883 0
M  V30 819 H 85.2808 1.31441 3.69413 0
M  V30 820 H 86.7708 0.437015 4.15307 0
M  V30 821 N 87.2079 -1.17134 1.05439 0
M  V30 822 C 88.4379 -1.91094 0.785274 0
M  V30 823 C 88.8459 -1.77198 -0.663142 0
M  V30 824 O 88.1889 -1.10835 -1.46497 0
M  V30 825 C 88.2509 -3.42594 1.08949 0
M  V30 826 C 87.9149 -3.80274 2.53458 0
M  V30 827 C 88.9119 -3.82912 3.51673 0
M  V30 828 C 86.5969 -4.11162 2.88532 0
M  V30 829 C 88.5909 -4.15913 4.83006 0
M  V30 830 C 86.2779 -4.43831 4.20068 0
M  V30 831 C 87.2759 -4.46185 5.17115 0
M  V30 832 O 86.9639 -4.78083 6.46291 0
M  V30 833 H 86.6959 -0.613073 0.284811 0
M  V30 834 H 89.2499 -1.49461 1.40893 0
M  V30 835 H 87.4799 -3.84534 0.408741 0
M  V30 836 H 89.1689 -3.97817 0.805991 0
M  V30 837 H 89.9349 -3.5917 3.25917 0
M  V30 838 H 85.8139 -4.085 2.13656 0
M  V30 839 H 89.3579 -4.17665 5.5875 0
M  V30 840 H 85.2549 -4.67037 4.45586 0
M  V30 841 H 86.0229 -4.9593 6.51149 0
M  V30 842 N 88.686 -0.835752 -1.33615 0
M  V30 843 C 89.933 -0.429959 -1.97883 0
M  V30 844 C 90.261 1.01006 -1.66217 0
M  V30 845 O 89.516 1.72047 -0.93265 0
M  V30 846 C 89.815 -0.593925 -3.52431 0
M  V30 847 C 89.481 -2.00158 -4.04039 0
M  V30 848 C 88.143 -2.38662 -4.17844 0
M  V30 849 C 90.495 -2.92117 -4.31644 0
M  V30 850 C 87.823 -3.68435 -4.56588 0
M  V30 851 C 90.175 -4.21368 -4.71838 0
M  V30 852 C 88.839 -4.59833 -4.83849 0
M  V30 853 H 88.109 -0.157333 -0.724104 0
M  V30 854 H 90.756 -1.06217 -1.59343 0
M  V30 855 H 89.061 0.121619 -3.91611 0
M  V30 856 H 90.758 -0.260282 -4.00154 0
M  V30 857 H 87.348 -1.69252 -3.93766 0
M  V30 858 H 91.532 -2.63608 -4.20505 0
M  V30 859 H 86.788 -3.98046 -4.64079 0
M  V30 860 H 90.962 -4.92703 -4.92155 0
M  V30 861 H 88.589 -5.60438 -5.13627 0
M  V30 862 N 90.1641 1.46063 -0.591896 0
M  V30 863 C 91.0941 2.33172 0.123673 0
M  V30 864 C 92.0751 1.45897 0.87453 0
M  V30 865 O 93.2601 1.74698 0.848181 0
M  V30 866 C 90.3901 3.28336 1.13194 0
M  V30 867 C 89.3441 4.25124 0.495324 0
M  V30 868 C 88.6701 5.09863 1.61071 0
M  V30 869 C 89.9701 5.19143 -0.573425 0
M  V30 870 H 91.6641 2.93252 -0.603646 0
M  V30 871 H 89.2101 1.41014 -0.291741 0
M  V30 872 H 91.1631 3.88137 1.64097 0
M  V30 873 H 89.8871 2.66383 1.88965 0
M  V30 874 H 88.5461 3.66599 0.00729452 0
M  V30 875 H 88.1941 4.44288 2.35832 0
M  V30 876 H 87.8941 5.75417 1.19035 0
M  V30 877 H 89.4181 5.72529 2.12233 0
M  V30 878 H 90.8321 5.73106 -0.1491 0
M  V30 879 H 89.2291 5.93089 -0.914636 0
M  V30 880 H 90.2991 4.62519 -1.45617 0
M  V30 881 N 91.6422 0.330177 1.54103 0
M  V30 882 C 92.8882 -0.270806 2.00984 0
M  V30 883 C 93.2212 -1.51265 1.21789 0
M  V30 884 O 92.4962 -1.92142 0.301927 0
M  V30 885 C 92.7792 -0.598339 3.55094 0
M  V30 886 C 92.6322 0.654674 4.4501 0
M  V30 887 C 93.9512 -1.41334 4.16789 0
M  V30 888 H 91.0702 -0.0969531 0.730595 0
M  V30 889 H 93.7122 0.448066 1.84641 0
M  V30 890 H 91.8622 -1.21078 3.69151 0
M  V30 891 H 93.5342 1.29285 4.42813 0
M  V30 892 H 91.7772 1.28224 4.14416 0
M  V30 893 H 92.4482 0.380944 5.50684 0
M  V30 894 H 94.9242 -0.895597 4.06347 0
M  V30 895 H 93.8002 -1.61127 5.24718 0
M  V30 896 H 94.0612 -2.41146 3.70541 0
M  V30 897 N 93.1203 -1.57491 0.0584922 0
M  V30 898 C 94.0503 -2.14988 -0.911178 0
M  V30 899 C 95.0313 -1.07343 -1.31952 0
M  V30 900 O 96.2163 -1.35318 -1.39294 0
M  V30 901 C 93.3463 -2.70078 -2.18347 0
M  V30 902 C 92.3003 -3.82771 -1.91495 0
M  V30 903 C 91.6263 -4.24408 -3.25241 0
M  V30 904 C 92.9263 -5.07592 -1.23075 0
M  V30 905 H 94.6203 -2.96263 -0.432246 0
M  V30 906 H 92.1663 -1.42512 -0.206469 0
M  V30 907 H 94.1193 -3.08943 -2.86587 0
M  V30 908 H 92.8433 -1.86005 -2.68458 0
M  V30 909 H 91.5023 -3.44389 -1.25664 0
M  V30 910 H 91.1503 -3.37275 -3.73168 0
M  V30 911 H 90.8503 -5.00366 -3.08071 0
M  V30 912 H 92.3743 -4.65879 -3.94701 0
M  V30 913 H 93.7883 -5.43857 -1.81362 0
M  V30 914 H 92.1853 -5.88741 -1.16207 0
M  V30 915 H 93.2553 -4.84454 -0.207847 0
M  V30 916 N 94.5984 0.214957 -1.56127 0
M  V30 917 C 95.5314 1.29382 -1.87977 0
M  V30 918 C 96.5094 1.44897 -0.737807 0
M  V30 919 O 97.6934 1.60605 -0.986833 0
M  V30 920 C 94.8204 2.66325 -2.09258 0
M  V30 921 C 93.8664 2.67789 -3.31951 0
M  V30 922 S 94.6994 2.21198 -4.8768 0
M  V30 923 C 95.8554 3.60003 -5.12004 0
M  V30 924 H 96.0884 1.02173 -2.79192 0
M  V30 925 H 93.6214 0.417516 -1.48648 0
M  V30 926 H 95.5794 3.45162 -2.22201 0
M  V30 927 H 94.2404 2.90755 -1.18829 0
M  V30 928 H 93.4334 3.68436 -3.43906 0
M  V30 929 H 93.0354 1.9702 -3.17898 0
M  V30 930 H 95.3274 4.55739 -5.01307 0
M  V30 931 H 96.2704 3.52959 -6.13861 0
M  V30 932 H 96.6784 3.53996 -4.39712 0
M  V30 933 N 96.0765 1.50051 0.48192 0
M  V30 934 C 97.3225 1.60736 1.2366 0
M  V30 935 C 97.6555 0.301786 1.91841 0
M  V30 936 O 96.9305 -0.696025 1.8162 0
M  V30 937 C 97.2135 2.78009 2.28874 0
M  V30 938 C 97.0665 4.18416 1.65069 0
M  V30 939 C 98.3855 2.90867 3.30279 0
M  V30 940 H 95.5045 0.585031 0.448228 0
M  V30 941 H 98.1465 1.82402 0.531946 0
M  V30 942 H 96.2965 2.59667 2.88973 0
M  V30 943 H 97.9685 4.48322 1.0865 0
M  V30 944 H 96.2115 4.23177 0.954148 0
M  V30 945 H 96.8825 4.96381 2.41474 0
M  V30 946 H 99.3585 3.07623 2.80191 0
M  V30 947 H 98.2345 3.74566 4.01238 0
M  V30 948 H 98.4955 2.01021 3.93755 0
M  V30 949 N 97.5546 -0.734337 1.39446 0
M  V30 950 C 98.8016 -1.49391 1.36706 0
M  V30 951 C 99.1296 -1.94465 -0.0367813 0
M  V30 952 O 98.3846 -1.67154 -1.01774 0
M  V30 953 C 98.6836 -2.74711 2.28623 0
M  V30 954 C 98.3496 -2.48501 3.76242 0
M  V30 955 C 97.0116 -2.41062 4.16464 0
M  V30 956 C 99.3636 -2.26098 4.69606 0
M  V30 957 C 96.6916 -2.09262 5.48112 0
M  V30 958 C 99.0436 -1.95814 6.01531 0
M  V30 959 C 97.7076 -1.86845 6.40816 0
M  V30 960 H 96.9776 -0.546661 0.500243 0
M  V30 961 H 99.6246 -0.842788 1.71957 0
M  V30 962 H 97.9296 -3.44569 1.86492 0
M  V30 963 H 99.6266 -3.32741 2.23796 0
M  V30 964 H 96.2166 -2.55169 3.44364 0
M  V30 965 H 100.401 -2.30812 4.39363 0
M  V30 966 H 95.6566 -2.00841 5.77471 0
M  V30 967 H 99.8306 -1.77488 6.73403 0
M  V30 968 H 97.4576 -1.6197 7.42745 0
M  V30 969 N 99.0327 -1.24633 -0.964593 0
M  V30 970 C 100.279 -1.08949 -1.71049 0
M  V30 971 C 100.612 0.370302 -1.90637 0
M  V30 972 O 99.8867 1.27349 -1.47011 0
M  V30 973 C 100.17 -1.83329 -3.0994 0
M  V30 974 C 100.023 -3.37077 -2.97824 0
M  V30 975 C 101.342 -1.60846 -4.09654 0
M  V30 976 H 98.4607 -0.397178 -0.620821 0
M  V30 977 H 101.103 -1.5334 -1.12191 0
M  V30 978 H 99.2527 -1.45597 -3.60186 0
M  V30 979 H 100.925 -3.84425 -2.5498 0
M  V30 980 H 99.1677 -3.65298 -2.33965 0
M  V30 981 H 99.8387 -3.84324 -3.96231 0
M  V30 982 H 102.315 -1.93674 -3.68279 0
M  V30 983 H 101.191 -2.1534 -5.04896 0
M  V30 984 H 101.452 -0.547434 -4.38698 0
M  V30 985 N 100.511 1.16574 -1.06058 0
M  V30 986 C 101.461 2.18854 -0.63929 0
M  V30 987 C 102.445 1.57505 0.328798 0
M  V30 988 O 103.637 1.76408 0.144623 0
M  V30 989 C 100.766 3.43291 -0.0247203 0
M  V30 990 C 99.8518 4.11722 -1.01716 0
M  V30 991 N 100.243 4.55841 -2.19186 0
M  V30 992 C 98.5408 4.37872 -0.847569 0
M  V30 993 C 99.2418 5.08751 -2.82042 0
M  V30 994 N 98.2178 5.01489 -2.09784 0
M  V30 995 H 102.02 2.5068 -1.53417 0
M  V30 996 H 99.5338 1.32999 -0.931935 0
M  V30 997 H 101.531 4.15856 0.294915 0
M  V30 998 H 100.191 3.12954 0.865448 0
M  V30 999 H 101.202 4.49649 -2.56975 0
M  V30 1000 H 97.8788 4.17499 -0.00918848 0
M  V30 1001 H 99.2688 5.52944 -3.81709 0
M  V30 1002 N 101.989 0.842826 1.3317 0
M  V30 1003 C 102.919 0.294028 2.31641 0
M  V30 1004 C 103.9 -0.600401 1.59151 0
M  V30 1005 O 105.085 -0.523124 1.87022 0
M  V30 1006 C 102.215 -0.528416 3.43257 0
M  V30 1007 C 101.169 0.27056 4.27144 0
M  V30 1008 C 100.495 -0.675881 5.30411 0
M  V30 1009 C 101.795 1.48981 5.00602 0
M  V30 1010 H 103.489 1.11681 2.77791 0
M  V30 1011 H 101.035 0.538478 1.33553 0
M  V30 1012 H 102.988 -0.922674 4.11175 0
M  V30 1013 H 101.712 -1.38445 2.95805 0
M  V30 1014 H 100.371 0.646427 3.60856 0
M  V30 1015 H 100.019 -1.52842 4.79216 0
M  V30 1016 H 99.7189 -0.145374 5.8742 0
M  V30 1017 H 101.243 -1.06757 6.01195 0
M  V30 1018 H 102.657 1.16849 5.61266 0
M  V30 1019 H 101.054 1.95739 5.6728 0
M  V30 1020 H 102.124 2.25746 4.29147 0
M  V30 1021 N 103.467 -1.45747 0.599634 0
M  V30 1022 C 104.697 -2.06369 0.0977132 0
M  V30 1023 C 105.105 -1.44624 -1.21985 0
M  V30 1024 O 104.448 -0.551831 -1.75216 0
M  V30 1025 C 104.51 -3.59284 -0.124673 0
M  V30 1026 C 104.174 -4.43318 1.10987 0
M  V30 1027 C 105.171 -4.78796 2.02609 0
M  V30 1028 C 102.856 -4.84194 1.33647 0
M  V30 1029 C 104.85 -5.53997 3.15224 0
M  V30 1030 C 102.537 -5.5915 2.46565 0
M  V30 1031 C 103.535 -5.93968 3.37182 0
M  V30 1032 O 103.223 -6.67405 4.48136 0
M  V30 1033 H 102.955 -0.673122 0.0623153 0
M  V30 1034 H 105.509 -1.88104 0.824981 0
M  V30 1035 H 103.739 -3.75919 -0.906745 0
M  V30 1036 H 105.428 -4.01775 -0.577201 0
M  V30 1037 H 106.194 -4.47781 1.86325 0
M  V30 1038 H 102.073 -4.56534 0.64016 0
M  V30 1039 H 105.617 -5.81091 3.85978 0
M  V30 1040 H 101.514 -5.89579 2.62805 0
M  V30 1041 H 102.282 -6.85847 4.46717 0
M  V30 1042 N 104.945 -0.338344 -1.53925 0
M  V30 1043 C 105.875 0.51328 -2.27789 0
M  V30 1044 C 106.856 1.107 -1.29149 0
M  V30 1045 O 108.041 1.12937 -1.57984 0
M  V30 1046 C 105.171 1.66697 -3.04679 0
M  V30 1047 C 104.125 1.20183 -4.1078 0
M  V30 1048 C 103.451 2.44363 -4.75595 0
M  V30 1049 C 104.751 0.30605 -5.21403 0
M  V30 1050 H 106.445 -0.102883 -2.99223 0
M  V30 1051 H 103.991 -0.0509219 -1.4391 0
M  V30 1052 H 105.944 2.26915 -3.55088 0
M  V30 1053 H 104.668 2.30995 -2.30887 0
M  V30 1054 H 103.327 0.622499 -3.61276 0
M  V30 1055 H 102.975 3.07057 -3.98403 0
M  V30 1056 H 102.675 2.13925 -5.47275 0
M  V30 1057 H 104.199 3.05317 -5.28786 0
M  V30 1058 H 105.613 0.814929 -5.67478 0
M  V30 1059 H 104.01 0.0937929 -6.00027 0
M  V30 1060 H 105.08 -0.65921 -4.80398 0
M  V30 1061 N 106.423 1.57458 -0.0668435 0
M  V30 1062 C 107.671 1.92919 0.602214 0
M  V30 1063 C 107.992 0.947215 1.70449 0
M  V30 1064 O 107.262 -0.00544117 1.95899 0
M  V30 1065 H 105.842 0.71217 0.22544 0
M  V30 1066 H 108.504 1.94508 -0.123535 0
M  V30 1067 H 107.6 2.94589 1.03073 0
M  V30 1068 N 107.901 -0.206675 1.56239 0
M  V30 1069 C 108.849 -1.27571 1.94495 0
M  V30 1070 C 109.843 -1.47737 0.828862 0
M  V30 1071 O 111.049 -1.48735 1.0138 0
M  V30 1072 H 107.424 -0.428029 0.6183 0
M  V30 1073 H 109.395 -0.925961 2.8367 0
M  V30 1074 C 108.144 -2.61568 2.29079 0
M  V30 1075 H 107.467 -2.46863 3.14482 0
M  V30 1076 H 108.907 -3.35144 2.5972 0
M  V30 1077 C 107.366 -3.17695 1.12123 0
M  V30 1078 O 107.896 -3.99801 0.390153 0
M  V30 1079 N 106.102 -2.76276 0.901097 0
M  V30 1080 H 105.649 -2.09613 1.49733 0
M  V30 1081 H 105.607 -3.1417 0.120319 0
M  V30 1082 N 109.379 -1.50304 -0.473955 0
M  V30 1083 C 110.625 -1.61389 -1.22806 0
M  V30 1084 C 110.958 -0.311955 -1.91678 0
M  V30 1085 O 110.233 0.686384 -1.81986 0
M  V30 1086 C 110.516 -2.79219 -2.27396 0
M  V30 1087 C 110.369 -4.19286 -1.62848 0
M  V30 1088 C 111.688 -2.92614 -3.28732 0
M  V30 1089 H 108.807 -0.587399 -0.445119 0
M  V30 1090 H 111.449 -1.82681 -0.522265 0
M  V30 1091 H 109.599 -2.61195 -2.87592 0
M  V30 1092 H 111.271 -4.48892 -1.06271 0
M  V30 1093 H 109.514 -4.23677 -0.931693 0
M  V30 1094 H 110.185 -4.97655 -2.38838 0
M  V30 1095 H 112.661 -3.09105 -2.78556 0
M  V30 1096 H 111.537 -3.76688 -3.99246 0
M  V30 1097 H 111.798 -2.03107 -3.92683 0
M  V30 1098 N 110.857 0.726932 -1.39834 0
M  V30 1099 C 111.787 1.85405 -1.41941 0
M  V30 1100 C 112.768 1.67751 -0.281728 0
M  V30 1101 O 113.953 1.8795 -0.488717 0
M  V30 1102 C 111.083 3.23243 -1.2701 0
M  V30 1103 C 110.037 3.55549 -2.38262 0
M  V30 1104 C 109.363 4.9241 -2.08415 0
M  V30 1105 C 110.663 3.577 -3.80589 0
M  V30 1106 H 112.357 1.83899 -2.36266 0
M  V30 1107 H 109.903 0.883349 -1.13723 0
M  V30 1108 H 111.856 4.01775 -1.27103 0
M  V30 1109 H 110.58 3.25296 -0.291564 0
M  V30 1110 H 109.239 2.79351 -2.37399 0
M  V30 1111 H 108.887 4.91052 -1.0898 0
M  V30 1112 H 108.587 5.14992 -2.82943 0
M  V30 1113 H 110.111 5.73289 -2.10171 0
M  V30 1114 H 111.525 4.26293 -3.83337 0
M  V30 1115 H 109.922 3.91804 -4.54543 0
M  V30 1116 H 110.992 2.57328 -4.10987 0
M  V30 1117 N 112.336 1.25143 0.95797 0
M  V30 1118 C 113.299 1.05321 2.03569 0
M  V30 1119 C 114.299 0.007152 1.60798 0
M  V30 1120 O 115.489 0.24903 1.72411 0
M  V30 1121 C 112.621 0.598394 3.35607 0
M  V30 1122 H 113.814 2.00986 2.22586 0
M  V30 1123 H 111.367 1.07502 1.13459 0
M  V30 1124 H 112.102 -0.361014 3.22284 0
M  V30 1125 H 111.887 1.35351 3.67998 0
M  V30 1126 H 113.377 0.48104 4.1482 0
M  V30 1127 N 113.814 -1.1601 1.06675 0
M  V30 1128 C 114.744 -2.22688 0.702307 0
M  V30 1129 C 115.725 -1.67306 -0.307032 0
M  V30 1130 O 116.91 -1.93352 -0.181305 0
M  V30 1131 C 114.04 -3.47178 0.092038 0
M  V30 1132 C 112.994 -4.15477 1.02777 0
M  V30 1133 C 112.32 -5.33963 0.28061 0
M  V30 1134 C 113.62 -4.66019 2.35846 0
M  V30 1135 H 115.314 -2.53429 1.59419 0
M  V30 1136 H 112.86 -1.21813 0.767961 0
M  V30 1137 H 114.813 -4.21037 -0.174814 0
M  V30 1138 H 113.537 -3.15749 -0.834877 0
M  V30 1139 H 112.196 -3.43549 1.27944 0
M  V30 1140 H 111.844 -4.98788 -0.649545 0
M  V30 1141 H 111.544 -5.806 0.904258 0
M  V30 1142 H 113.068 -6.10596 0.021396 0
M  V30 1143 H 114.482 -5.3144 2.15045 0
M  V30 1144 H 112.879 -5.23293 2.93743 0
M  V30 1145 H 113.949 -3.82023 2.98641 0
M  V30 1146 N 115.292 -0.849877 -1.32721 0
M  V30 1147 C 116.222 -0.306308 -2.31482 0
M  V30 1148 C 117.203 0.591952 -1.59468 0
M  V30 1149 O 118.388 0.513199 -1.87296 0
M  V30 1150 C 115.518 0.510204 -3.43532 0
M  V30 1151 C 114.472 -0.293209 -4.26994 0
M  V30 1152 C 113.798 0.647743 -5.30762 0
M  V30 1153 C 115.098 -1.51634 -4.99804 0
M  V30 1154 H 116.792 -1.13153 -2.77195 0
M  V30 1155 H 114.338 -0.545553 -1.33266 0
M  V30 1156 H 116.291 0.900856 -4.11658 0
M  V30 1157 H 115.015 1.36874 -2.96535 0
M  V30 1158 H 113.674 -0.665555 -3.60508 0
M  V30 1159 H 113.322 1.50299 -4.8002 0
M  V30 1160 H 113.022 0.11422 -5.87489 0
M  V30 1161 H 114.546 1.03567 -6.01753 0
M  V30 1162 H 115.96 -1.19824 -5.60638 0
M  V30 1163 H 114.357 -1.98745 -5.66234 0
M  V30 1164 H 115.427 -2.28018 -4.27943 0
M  V30 1165 N 116.77 1.45427 -0.607355 0
M  V30 1166 C 117.7 2.3329 0.0989352 0
M  V30 1167 C 118.681 1.46816 0.859007 0
M  V30 1168 O 119.866 1.75588 0.829604 0
M  V30 1169 C 116.996 3.29518 1.09705 0
M  V30 1170 C 115.95 4.25626 0.450206 0
M  V30 1171 C 115.276 5.11542 1.55655 0
M  V30 1172 C 116.576 5.18505 -0.628455 0
M  V30 1173 H 118.27 2.92595 -0.634716 0
M  V30 1174 H 115.816 1.40696 -0.306681 0
M  V30 1175 H 117.769 3.89855 1.59971 0
M  V30 1176 H 116.493 2.68372 1.86129 0
M  V30 1177 H 115.152 3.66586 -0.0315886 0
M  V30 1178 H 114.8 4.46765 2.31107 0
M  V30 1179 H 114.5 5.76647 1.12925 0
M  V30 1180 H 116.024 5.74748 2.06148 0
M  V30 1181 H 117.438 5.72916 -0.209877 0
M  V30 1182 H 115.835 5.92085 -0.977489 0
M  V30 1183 H 116.905 4.60948 -1.50514 0
M  V30 1184 N 118.248 0.346503 1.53744 0
M  V30 1185 C 119.495 -0.249104 2.00962 0
M  V30 1186 C 119.823 -1.5032 1.23426 0
M  V30 1187 O 119.078 -1.93217 0.310761 0
M  V30 1188 C 119.377 -0.605809 3.52228 0
M  V30 1189 C 119.043 0.551747 4.47512 0
M  V30 1190 C 117.705 0.86941 4.73281 0
M  V30 1191 C 120.057 1.32818 5.03993 0
M  V30 1192 C 117.385 1.96582 5.52786 0
M  V30 1193 C 119.737 2.41486 5.84694 0
M  V30 1194 C 118.401 2.73808 6.08757 0
M  V30 1195 H 117.671 -0.0911538 0.735372 0
M  V30 1196 H 120.318 0.475027 1.85515 0
M  V30 1197 H 118.623 -1.4107 3.65522 0
M  V30 1198 H 120.32 -1.07858 3.86222 0
M  V30 1199 H 116.91 0.294102 4.2759 0
M  V30 1200 H 121.094 1.09602 4.84047 0
M  V30 1201 H 116.35 2.22045 5.69654 0
M  V30 1202 H 120.524 3.02078 6.27473 0
M  V30 1203 H 118.151 3.58892 6.7015 0
M  V30 1204 N 119.726 -1.57421 0.075193 0
M  V30 1205 C 120.972 -1.93905 -0.594025 0
M  V30 1206 C 121.305 -0.955701 -1.69056 0
M  V30 1207 O 120.58 0.0145373 -1.94495 0
M  V30 1208 C 120.863 -3.40638 -1.1678 0
M  V30 1209 C 120.716 -4.49733 -0.0776792 0
M  V30 1210 C 122.035 -3.88259 -2.07228 0
M  V30 1211 H 119.154 -0.705105 -0.214466 0
M  V30 1212 H 121.796 -1.8947 0.141854 0
M  V30 1213 H 119.946 -3.44549 -1.79494 0
M  V30 1214 H 121.618 -4.57942 0.555573 0
M  V30 1215 H 119.861 -4.29751 0.591286 0
M  V30 1216 H 120.532 -5.49549 -0.519603 0
M  V30 1217 H 123.008 -3.86376 -1.54445 0
M  V30 1218 H 121.884 -4.91533 -2.44308 0
M  V30 1219 H 122.145 -3.26396 -2.98191 0
M  V30 1220 N 121.204 0.198386 -1.56346 0
M  V30 1221 C 122.154 1.2499 -1.90687 0
M  V30 1222 C 123.138 1.41158 -0.772217 0
M  V30 1223 O 124.33 1.43584 -1.03502 0
M  V30 1224 C 121.459 2.59542 -2.24706 0
M  V30 1225 C 120.545 2.47181 -3.44619 0
M  V30 1226 N 120.936 2.04495 -4.62618 0
M  V30 1227 C 119.234 2.78082 -3.48692 0
M  V30 1228 C 119.935 2.03945 -5.44776 0
M  V30 1229 N 118.911 2.45323 -4.85095 0
M  V30 1230 H 122.713 0.911149 -2.7942 0
M  V30 1231 H 120.227 0.40684 -1.57221 0
M  V30 1232 H 122.224 3.3549 -2.47491 0
M  V30 1233 H 120.884 2.94244 -1.37298 0
M  V30 1234 H 121.895 1.75256 -4.87345 0
M  V30 1235 H 118.572 3.17002 -2.71691 0
M  V30 1236 H 119.962 1.72872 -6.4928 0
M  V30 1237 N 122.682 1.50554 0.465978 0
M  V30 1238 C 123.912 1.65323 1.23903 0
M  V30 1239 C 124.32 0.338051 1.86155 0
M  V30 1240 O 123.663 -0.690518 1.70228 0
M  V30 1241 C 123.725 2.69048 2.3844 0
M  V30 1242 C 123.389 4.12462 1.96784 0
M  V30 1243 C 124.386 4.98168 1.48745 0
M  V30 1244 C 122.071 4.58407 2.05349 0
M  V30 1245 C 124.065 6.27868 1.0982 0
M  V30 1246 C 121.752 5.88112 1.66035 0
M  V30 1247 C 122.75 6.72668 1.18349 0
M  V30 1248 O 122.438 7.99951 0.795825 0
M  V30 1249 H 122.17 0.558629 0.38067 0
M  V30 1250 H 124.724 1.97561 0.562022 0
M  V30 1251 H 122.954 2.32062 3.09328 0
M  V30 1252 H 124.643 2.72985 3.0039 0
M  V30 1253 H 125.409 4.63885 1.41546 0
M  V30 1254 H 121.288 3.92735 2.41414 0
M  V30 1255 H 124.832 6.93819 0.725293 0
M  V30 1256 H 120.729 6.21914 1.72895 0
M  V30 1257 H 121.497 8.13265 0.924222 0
M  V30 1258 N 124.16 -0.719506 1.40217 0
M  V30 1259 C 125.385 -1.51371 1.4178 0
M  V30 1260 C 125.81 -1.88091 0.0182355 0
M  V30 1261 O 125.168 -1.52997 -0.972707 0
M  V30 1262 C 125.216 -2.768 2.31115 0
M  V30 1263 O 124.32 -3.73349 1.7517 0
M  V30 1264 H 123.661 -0.456529 0.482159 0
M  V30 1265 H 126.191 -0.88644 1.844 0
M  V30 1266 H 126.201 -3.25371 2.46167 0
M  V30 1267 H 124.876 -2.49407 3.3282 0
M  V30 1268 H 123.453 -3.32179 1.69444 0
M  V30 1269 N 125.638 -1.25649 -0.95132 0
M  V30 1270 C 126.586 -1.06118 -2.06982 0
M  V30 1271 C 127.58 0.00889169 -1.69398 0
M  V30 1272 O 128.786 -0.146988 -1.79399 0
M  V30 1273 H 125.161 -0.326248 -0.677544 0
M  V30 1274 H 127.132 -2.00932 -2.2061 0
M  V30 1275 C 125.881 -0.700145 -3.40578 0
M  V30 1276 H 125.204 -1.51537 -3.69968 0
M  V30 1277 H 126.644 -0.603211 -4.19687 0
M  V30 1278 C 125.103 0.59403 -3.31622 0
M  V30 1279 O 125.633 1.63522 -3.66911 0
M  V30 1280 N 123.839 0.58089 -2.84735 0
M  V30 1281 H 123.386 -0.266783 -2.56215 0
M  V30 1282 H 123.344 1.44695 -2.79125 0
M  V30 1283 N 127.117 1.15442 -1.07289 0
M  V30 1284 C 128.365 1.85845 -0.794096 0
M  V30 1285 C 128.686 1.82692 0.681809 0
M  V30 1286 O 127.956 1.26741 1.49377 0
M  V30 1287 H 126.536 0.688089 -0.290763 0
M  V30 1288 H 129.198 1.39947 -1.3565 0
M  V30 1289 H 128.294 2.91001 -1.12804 0
M  V30 1290 N 128.595 0.856903 1.32268 0
M  V30 1291 C 129.872 0.382583 1.91822 0
M  V30 1292 C 130.252 -1.13407 1.78051 0
M  V30 1293 O 129.6 -1.95673 1.18001 0
M  V30 1294 C 129.81 0.849446 3.38505 0
M  V30 1295 C 131.158 0.867936 4.15634 0
M  V30 1296 O 132.182 0.794232 3.47232 0
M  V30 1297 O 131.041 0.972286 5.37781 0
M  V30 1298 H 128.135 0.112014 0.819379 0
M  V30 1299 H 130.681 0.943952 1.41024 0
M  V30 1300 H 129.453 1.89267 3.42482 0
M  V30 1301 H 129.076 0.265652 3.96712 0
M  V30 1302 N 130.073 -1.45103 0.615059 0
M  V30 1303 C 130.983 -2.34382 -0.101034 0
M  V30 1304 C 131.999 -1.51681 -0.852585 0
M  V30 1305 O 133.175 -1.8446 -0.808484 0
M  V30 1306 C 130.24 -3.29417 -1.08099 0
M  V30 1307 C 129.301 -4.28025 -0.330577 0
M  V30 1308 C 128.534 -5.1852 -1.26385 0
M  V30 1309 O 128.757 -5.12598 -2.50198 0
M  V30 1310 O 127.691 -5.97122 -0.756866 0
M  V30 1311 H 131.517 -2.97033 0.632855 0
M  V30 1312 H 129.102 -1.4461 0.375293 0
M  V30 1313 H 130.984 -3.87958 -1.6452 0
M  V30 1314 H 129.659 -2.69321 -1.79577 0
M  V30 1315 H 128.566 -3.73078 0.276283 0
M  V30 1316 H 129.899 -4.90997 0.343866 0
M  V30 1317 N 131.551 -0.354651 -1.53558 0
M  V30 1318 C 132.776 0.242153 -2.05981 0
M  V30 1319 C 133.201 1.42553 -1.2272 0
M  V30 1320 O 132.559 1.79656 -0.243604 0
M  V30 1321 C 132.607 0.624367 -3.55154 0
M  V30 1322 O 131.711 1.72301 -3.74681 0
M  V30 1323 H 131.052 0.0378432 -0.662921 0
M  V30 1324 H 133.582 -0.512087 -1.98088 0
M  V30 1325 H 133.592 0.898433 -3.97985 0
M  V30 1326 H 132.267 -0.240989 -4.15201 0
M  V30 1327 H 130.844 1.44535 -3.4375 0
M  V30 1328 N 133.029 1.57378 -0.0835403 0
M  V30 1329 C 134.254 1.98682 0.594987 0
M  V30 1330 C 134.679 0.961969 1.61641 0
M  V30 1331 O 134.037 -0.0709989 1.81161 0
M  V30 1332 C 134.085 3.38988 1.2296 0
M  V30 1333 O 133.189 3.39208 2.34546 0
M  V30 1334 H 132.53 0.646368 0.152002 0
M  V30 1335 H 135.06 2.03961 -0.161533 0
M  V30 1336 H 135.07 3.76431 1.57366 0
M  V30 1337 H 133.745 4.13107 0.481228 0
M  V30 1338 H 132.322 3.13548 2.01846 0
M  V30 1339 N 134.507 -0.190092 1.56449 0
M  V30 1340 C 135.784 -0.935886 1.71757 0
M  V30 1341 C 136.164 -2.01173 0.639726 0
M  V30 1342 O 135.512 -2.25827 -0.348502 0
M  V30 1343 C 135.722 -1.51775 3.1427 0
M  V30 1344 C 137.07 -1.99794 3.74656 0
M  V30 1345 O 138.094 -1.61607 3.1743 0
M  V30 1346 O 136.953 -2.70079 4.751 0
M  V30 1347 H 134.047 -0.439229 0.700719 0
M  V30 1348 H 136.593 -0.179395 1.68749 0
M  V30 1349 H 135.365 -0.742505 3.84191 0
M  V30 1350 H 134.988 -2.33894 3.21527 0
M  V30 1351 N 135.985 -1.50799 -0.457987 0
M  V30 1352 C 137.396 -1.55152 -1.0385 0
M  V30 1353 C 137.747 -0.362719 -1.92818 0
M  V30 1354 O 136.872 0.522915 -2.09987 0
M  V30 1355 C 137.467 -2.81173 -1.89017 0
M  V30 1356 C 136.026 -2.88164 -2.42154 0
M  V30 1357 C 135.173 -2.49591 -1.20829 0
M  V30 1358 H 138.124 -1.56874 -0.240068 0
M  V30 1359 H 138.145 -2.63769 -2.74238 0
M  V30 1360 H 137.657 -3.67677 -1.24238 0
M  V30 1361 H 135.758 -2.06042 -3.10447 0
M  V30 1362 H 135.871 -3.91356 -2.76364 0
M  V30 1363 H 134.235 -2.02322 -1.54719 0
M  V30 1364 H 135.018 -3.38418 -0.576927 0
M  V30 1365 N 137.463 0.71206 -1.40597 0
M  V30 1366 C 138.711 1.46907 -1.38791 0
M  V30 1367 C 139.032 1.94998 0.00780391 0
M  V30 1368 O 138.302 1.70587 0.963174 0
M  V30 1369 H 136.882 0.545043 -0.51082 0
M  V30 1370 H 139.544 0.843882 -1.75683 0
M  V30 1371 H 138.64 2.34021 -2.06496 0
M  V30 1372 N 138.941 1.26152 0.944643 0
M  V30 1373 C 140.352 1.10454 1.50522 0
M  V30 1374 C 140.703 -0.31635 1.93633 0
M  V30 1375 O 139.828 -1.20746 1.79581 0
M  V30 1376 C 140.423 1.99891 2.73549 0
M  V30 1377 C 138.982 1.88348 3.25886 0
M  V30 1378 C 138.129 1.93447 1.9868 0
M  V30 1379 H 141.08 1.39292 0.760489 0
M  V30 1380 H 141.101 1.54477 3.47732 0
M  V30 1381 H 140.613 3.03297 2.42141 0
M  V30 1382 H 138.714 0.878636 3.62092 0
M  V30 1383 H 138.827 2.73696 3.93227 0
M  V30 1384 H 137.191 1.37456 2.14425 0
M  V30 1385 H 137.974 2.98476 1.69607 0
M  V30 1386 N 140.419 -1.14872 1.07899 0
M  V30 1387 C 141.351 -2.19425 0.662231 0
M  V30 1388 C 142.364 -1.60231 -0.288079 0
M  V30 1389 O 143.553 -1.78336 -0.076534 0
M  V30 1390 C 140.653 -3.38867 -0.0470695 0
M  V30 1391 C 139.826 -4.27597 0.920831 0
M  V30 1392 C 138.885 -5.25616 0.247805 0
M  V30 1393 O 137.911 -5.62189 0.890599 0
M  V30 1394 N 139.113 -5.71746 -1.00435 0
M  V30 1395 H 141.878 -2.55797 1.56166 0
M  V30 1396 H 139.439 -1.30042 0.964404 0
M  V30 1397 H 141.431 -4.01497 -0.50813 0
M  V30 1398 H 140.001 -3.00864 -0.848523 0
M  V30 1399 H 139.221 -3.61982 1.56087 0
M  V30 1400 H 140.509 -4.83748 1.57688 0
M  V30 1401 H 139.907 -5.44153 -1.54642 0
M  V30 1402 H 138.464 -6.36389 -1.40899 0
M  V30 1403 N 141.898 -0.863906 -1.31812 0
M  V30 1404 C 142.848 -0.286898 -2.26188 0
M  V30 1405 C 143.832 0.572577 -1.50367 0
M  V30 1406 O 145.024 0.420447 -1.71934 0
M  V30 1407 C 142.153 0.515849 -3.39402 0
M  V30 1408 C 141.239 -0.356531 -4.22599 0
M  V30 1409 N 141.63 -1.44716 -4.84656 0
M  V30 1410 C 139.928 -0.147898 -4.45755 0
M  V30 1411 C 140.629 -1.98462 -5.46798 0
M  V30 1412 N 139.605 -1.28247 -5.28255 0
M  V30 1413 H 143.407 -1.12055 -2.717 0
M  V30 1414 H 140.921 -0.711012 -1.46008 0
M  V30 1415 H 142.918 0.945701 -4.06032 0
M  V30 1416 H 141.578 1.34718 -2.95434 0
M  V30 1417 H 142.589 -1.83008 -4.84488 0
M  V30 1418 H 139.266 0.647973 -4.12441 0
M  V30 1419 H 140.656 -2.89932 -6.06126 0
M  V30 1420 N 143.376 1.44774 -0.622745 0
M  V30 1421 C 144.792 1.56986 -0.287652 0
M  V30 1422 C 144.992 1.61167 1.20944 0
M  V30 1423 O 144.048 1.55015 1.99315 0
M  V30 1424 C 145.361 2.84551 -0.972188 0
M  V30 1425 C 146.909 2.9825 -0.949536 0
M  V30 1426 C 147.384 4.28605 -1.61437 0
M  V30 1427 N 148.875 4.35399 -1.58057 0
M  V30 1428 C 149.61 5.34964 -2.064 0
M  V30 1429 N 149.106 6.40981 -2.62897 0
M  V30 1430 N 150.899 5.26419 -1.97078 0
M  V30 1431 H 143.05 1.40304 -1.59463 0
M  V30 1432 H 145.313 0.671794 -0.668878 0
M  V30 1433 H 145.019 2.87417 -2.02693 0
M  V30 1434 H 144.893 3.73807 -0.504771 0
M  V30 1435 H 147.28 2.94941 0.0967067 0
M  V30 1436 H 147.361 2.10364 -1.45536 0
M  V30 1437 H 147.005 4.32672 -2.66002 0
M  V30 1438 H 146.935 5.15334 -1.08344 0
M  V30 1439 H 149.426 3.59397 -1.16801 0
M  V30 1440 H 149.739 7.13225 -2.97539 0
M  V30 1441 H 148.084 6.4169 -2.66943 0
M  V30 1442 H 151.275 4.42504 -1.52669 0
M  V30 1443 H 151.448 6.03861 -2.35066 0
M  V30 1444 N 144.854 0.36279 1.53368 0
M  V30 1445 C 145.817 -0.472679 2.24273 0
M  V30 1446 C 146.817 -1.012 1.24961 0
M  V30 1447 O 148.007 -0.898194 1.49259 0
M  V30 1448 C 145.139 -1.66039 2.97731 0
M  V30 1449 H 146.332 0.14773 2.99536 0
M  V30 1450 H 143.885 0.114434 1.55881 0
M  V30 1451 H 144.62 -2.31896 2.26704 0
M  V30 1452 H 144.405 -1.28066 3.70596 0
M  V30 1453 H 145.895 -2.25252 3.51641 0
M  V30 1454 N 146.332 -1.57332 0.0918853 0
M  V30 1455 C 147.264 -2.10869 -0.898168 0
M  V30 1456 C 148.277 -1.04521 -1.24817 0
M  V30 1457 O 149.466 -1.31977 -1.20184 0
M  V30 1458 C 146.566 -2.57083 -2.2082 0
M  V30 1459 C 145.739 -3.87229 -2.03402 0
M  V30 1460 C 144.798 -4.19324 -3.17889 0
M  V30 1461 O 143.824 -4.88598 -2.91994 0
M  V30 1462 N 145.026 -3.74471 -4.43567 0
M  V30 1463 H 147.791 -2.96439 -0.440943 0
M  V30 1464 H 145.352 -1.61631 -0.0933064 0
M  V30 1465 H 147.344 -2.75602 -2.96354 0
M  V30 1466 H 145.914 -1.76541 -2.57977 0
M  V30 1467 H 145.134 -3.7789 -1.12218 0
M  V30 1468 H 146.422 -4.72379 -1.89038 0
M  V30 1469 H 145.82 -3.18546 -4.67488 0
M  V30 1470 H 144.377 -3.98151 -5.16061 0
M  V30 1471 N 147.81 0.181792 -1.56548 0
M  V30 1472 C 149.058 0.89832 -1.81038 0
M  V30 1473 C 149.379 1.83232 -0.667164 0
M  V30 1474 O 148.649 1.93372 0.313673 0
M  V30 1475 H 147.229 0.33471 -0.667816 0
M  V30 1476 H 149.891 0.184116 -1.94028 0
M  V30 1477 H 148.987 1.4815 -2.74696 0
M  V30 1478 N 149.288 1.51039 0.449983 0
M  V30 1479 C 150.699 1.557 1.03026 0
M  V30 1480 C 151.05 0.372939 1.92623 0
M  V30 1481 O 150.175 -0.511771 2.10261 0
M  V30 1482 C 150.77 2.82171 1.87523 0
M  V30 1483 C 149.329 2.89444 2.40622 0
M  V30 1484 C 148.476 2.50228 1.19504 0
M  V30 1485 H 151.427 1.56999 0.231745 0
M  V30 1486 H 151.448 2.65219 2.72835 0
M  V30 1487 H 150.96 3.68331 1.22286 0
M  V30 1488 H 149.061 2.07685 3.0935 0
M  V30 1489 H 149.174 3.92816 2.74285 0
M  V30 1490 H 147.538 2.03139 1.53644 0
M  V30 1491 H 148.321 3.38719 0.558972 0
M  V30 1492 N 150.766 -0.704594 1.40972 0
M  V30 1493 C 152.014 -1.46169 1.39568 0
M  V30 1494 C 152.335 -1.95 0.00253745 0
M  V30 1495 O 151.605 -1.71095 -0.954114 0
M  V30 1496 H 150.185 -0.542326 0.513704 0
M  V30 1497 H 152.847 -0.834553 1.76128 0
M  V30 1498 H 151.943 -2.32922 2.07735 0
M  V30 1499 N 152.244 -1.26651 -0.937939 0
M  V30 1500 C 153.655 -1.1125 -1.49934 0
M  V30 1501 C 154.006 0.306077 -1.93798 0
M  V30 1502 O 153.131 1.19792 -1.80219 0
M  V30 1503 C 153.726 -2.01339 -2.72485 0
M  V30 1504 C 152.285 -1.90074 -3.24883 0
M  V30 1505 C 151.432 -1.94498 -1.97651 0
M  V30 1506 H 154.383 -1.39693 -0.753091 0
M  V30 1507 H 154.404 -1.56319 -3.46907 0
M  V30 1508 H 153.916 -3.04577 -2.40529 0
M  V30 1509 H 152.017 -0.897827 -3.61621 0
M  V30 1510 H 152.13 -2.75778 -3.9177 0
M  V30 1511 H 150.494 -1.38591 -2.13693 0
M  V30 1512 H 151.277 -2.99372 -1.68022 0
M  V30 1513 N 153.722 1.14298 -1.08507 0
M  V30 1514 C 154.632 2.23027 -0.727753 0
M  V30 1515 C 155.648 1.71952 0.26619 0
M  V30 1516 O 156.824 2.011 0.109882 0
M  V30 1517 C 153.889 3.46403 -0.143541 0
M  V30 1518 C 152.95 4.12413 -1.19223 0
M  V30 1519 C 152.183 5.29899 -0.635798 0
M  V30 1520 O 152.406 5.67796 0.544393 0
M  V30 1521 O 151.34 5.85717 -1.38634 0
M  V30 1522 H 155.166 2.55945 -1.63481 0
M  V30 1523 H 152.751 1.22248 -0.858817 0
M  V30 1524 H 154.633 4.21018 0.179404 0
M  V30 1525 H 153.308 3.15206 0.736659 0
M  V30 1526 H 152.215 3.39667 -1.56772 0
M  V30 1527 H 153.548 4.47718 -2.04474 0
M  V30 1528 N 155.201 0.870884 1.31352 0
M  V30 1529 C 156.612 0.534714 1.78879 0
M  V30 1530 C 156.963 -0.948423 1.71754 0
M  V30 1531 O 156.088 -1.74055 1.28584 0
M  V30 1532 C 156.683 0.963839 3.24801 0
M  V30 1533 C 155.242 0.679311 3.70219 0
M  V30 1534 C 154.389 1.15465 2.52117 0
M  V30 1535 H 157.34 1.05651 1.18421 0
M  V30 1536 H 157.361 0.286892 3.79417 0
M  V30 1537 H 156.873 2.04332 3.29955 0
M  V30 1538 H 154.974 -0.388769 3.70566 0
M  V30 1539 H 155.087 1.25698 4.62317 0
M  V30 1540 H 153.451 0.574383 2.48139 0
M  V30 1541 H 154.234 2.24157 2.60016 0
M  V30 1542 N 156.679 -1.44442 0.630414 0
M  V30 1543 C 157.907 -2.06414 0.141671 0
M  V30 1544 C 158.322 -1.47105 -1.18345 0
M  V30 1545 O 157.679 -0.593662 -1.72574 0
M  V30 1546 C 157.73 -3.61494 0.0199784 0
M  V30 1547 O 157.451 -4.18594 1.29269 0
M  V30 1548 C 158.952 -4.40499 -0.497544 0
M  V30 1549 H 156.172 -0.666292 0.0793452 0
M  V30 1550 H 158.716 -1.85323 0.864614 0
M  V30 1551 H 156.871 -3.8185 -0.653402 0
M  V30 1552 H 157.285 -5.12026 1.13707 0
M  V30 1553 H 158.759 -5.49433 -0.531708 0
M  V30 1554 H 159.236 -4.11895 -1.52445 0
M  V30 1555 H 159.842 -4.25061 0.142562 0
M  V30 1556 N 158.157 -0.370918 -1.53173 0
M  V30 1557 C 159.087 0.464847 -2.28826 0
M  V30 1558 C 160.068 1.07936 -1.31468 0
M  V30 1559 O 161.253 1.0956 -1.60344 0
M  V30 1560 C 158.383 1.60196 -3.08147 0
M  V30 1561 C 157.337 1.11443 -4.13237 0
M  V30 1562 C 156.663 2.3422 -4.80672 0
M  V30 1563 C 157.963 0.195384 -5.21934 0
M  V30 1564 H 159.657 -0.166329 -2.98938 0
M  V30 1565 H 157.203 -0.0814359 -1.4377 0
M  V30 1566 H 159.156 2.19332 -3.59822 0
M  V30 1567 H 157.88 2.26045 -2.35735 0
M  V30 1568 H 156.539 0.545727 -3.62515 0
M  V30 1569 H 156.187 2.98537 -4.04827 0
M  V30 1570 H 155.887 2.02269 -5.51689 0
M  V30 1571 H 157.411 2.94032 -5.35143 0
M  V30 1572 H 158.825 0.694375 -5.69079 0
M  V30 1573 H 157.222 -0.0335027 -6.00091 0
M  V30 1574 H 158.292 -0.760961 -4.78892 0
M  V30 1575 N 159.635 1.57281 -0.100228 0
M  V30 1576 C 160.883 1.94153 0.561157 0
M  V30 1577 C 161.204 0.983157 1.68401 0
M  V30 1578 O 160.474 0.0361132 1.95867 0
M  V30 1579 H 159.054 0.716791 0.210283 0
M  V30 1580 H 161.716 1.94202 -0.164765 0
M  V30 1581 H 160.812 2.96709 0.968008 0
M  V30 1582 N 161.113 -0.173488 1.56642 0
M  V30 1583 C 162.524 -0.736155 1.71574 0
M  V30 1584 C 162.875 -1.82888 0.710389 0
M  V30 1585 O 162 -2.16017 -0.1287 0
M  V30 1586 C 162.595 -1.34211 3.11083 0
M  V30 1587 C 161.154 -1.85162 3.27707 0
M  V30 1588 C 160.301 -0.729765 2.67525 0
M  V30 1589 H 163.252 0.0518786 1.58615 0
M  V30 1590 H 163.273 -2.21178 3.09613 0
M  V30 1591 H 162.785 -0.546579 3.84232 0
M  V30 1592 H 160.886 -2.67366 2.59512 0
M  V30 1593 H 160.999 -1.99855 4.35425 0
M  V30 1594 H 159.363 -1.14965 2.27278 0
M  V30 1595 H 160.146 0.0538806 3.43258 0
M  V30 1596 N 162.591 -1.51276 -0.441967 0
M  V30 1597 C 163.521 -1.752 -1.54361 0
M  V30 1598 C 164.502 -0.601682 -1.59103 0
M  V30 1599 O 165.687 -0.843913 -1.74905 0
M  V30 1600 C 162.817 -1.87282 -2.92477 0
M  V30 1601 C 161.771 -3.02687 -3.02596 0
M  V30 1602 C 161.097 -2.99947 -4.42647 0
M  V30 1603 C 162.397 -4.4273 -2.77106 0
M  V30 1604 H 164.091 -2.67442 -1.34592 0
M  V30 1605 H 161.637 -1.28694 -0.646048 0
M  V30 1606 H 163.59 -2.02602 -3.695 0
M  V30 1607 H 162.314 -0.916844 -3.13467 0
M  V30 1608 H 160.973 -2.87065 -2.28012 0
M  V30 1609 H 160.621 -2.02136 -4.60597 0
M  V30 1610 H 160.321 -3.77439 -4.50348 0
M  V30 1611 H 161.845 -3.17354 -5.2165 0
M  V30 1612 H 163.259 -4.58727 -3.43864 0
M  V30 1613 H 161.656 -5.21893 -2.96222 0
M  V30 1614 H 162.726 -4.53087 -1.72744 0
M  V30 1615 N 164.069 0.697108 -1.41344 0
M  V30 1616 C 165.297 1.48593 -1.43972 0
M  V30 1617 C 165.712 1.88747 -0.0445612 0
M  V30 1618 O 165.069 1.56682 0.935785 0
M  V30 1619 C 165.12 2.74946 -2.34706 0
M  V30 1620 O 164.841 2.36484 -3.68791 0
M  V30 1621 C 166.342 3.687 -2.46121 0
M  V30 1622 H 163.562 0.457964 -0.490418 0
M  V30 1623 H 166.106 0.858429 -1.8561 0
M  V30 1624 H 164.261 3.33937 -1.9638 0
M  V30 1625 H 164.675 3.17918 -4.17167 0
M  V30 1626 H 166.149 4.54145 -3.13777 0
M  V30 1627 H 166.626 4.13081 -1.49199 0
M  V30 1628 H 167.232 3.15613 -2.85076 0
M  V30 1629 N 165.547 1.27147 0.931209 0
M  V30 1630 C 166.963 1.04475 1.20653 0
M  V30 1631 C 167.163 -0.223885 2.00252 0
M  V30 1632 O 166.219 -0.930332 2.34736 0
M  V30 1633 C 167.532 2.28209 1.95809 0
M  V30 1634 C 169.08 2.33211 2.08762 0
M  V30 1635 C 169.555 3.56665 2.87323 0
M  V30 1636 N 171.046 3.57201 2.94892 0
M  V30 1637 C 171.781 4.49395 3.56134 0
M  V30 1638 N 171.277 5.51889 4.18796 0
M  V30 1639 N 173.07 4.37026 3.53504 0
M  V30 1640 H 165.221 2.08612 0.399333 0
M  V30 1641 H 167.484 0.917312 0.239253 0
M  V30 1642 H 167.19 3.20538 1.44736 0
M  V30 1643 H 167.064 2.33247 2.96438 0
M  V30 1644 H 169.451 1.41391 2.59023 0
M  V30 1645 H 169.532 2.32178 1.07364 0
M  V30 1646 H 169.176 4.4882 2.37746 0
M  V30 1647 H 169.106 3.54948 3.88998 0
M  V30 1648 H 171.597 2.83074 2.50354 0
M  V30 1649 H 171.91 6.18409 4.63454 0
M  V30 1650 H 170.255 5.55735 4.17353 0
M  V30 1651 H 173.446 3.56166 3.03749 0
M  V30 1652 H 173.619 5.09067 4.00942 0
M  V30 1653 N 167.025 -1.13721 1.09112 0
M  V30 1654 C 167.955 -2.21148 0.749385 0
M  V30 1655 C 168.936 -1.6792 -0.271475 0
M  V30 1656 O 170.121 -1.93693 -0.140251 0
M  V30 1657 C 167.251 -3.46905 0.165659 0
M  V30 1658 C 166.205 -4.13203 1.11567 0
M  V30 1659 C 165.531 -5.33248 0.393809 0
M  V30 1660 C 166.831 -4.60912 2.45678 0
M  V30 1661 H 168.525 -2.4999 1.64758 0
M  V30 1662 H 166.071 -1.20156 0.793626 0
M  V30 1663 H 168.024 -4.21313 -0.085466 0
M  V30 1664 H 166.748 -3.17449 -0.767714 0
M  V30 1665 H 165.407 -3.40758 1.35202 0
M  V30 1666 H 165.055 -5.00054 -0.543599 0
M  V30 1667 H 164.755 -5.78552 1.02721 0
M  V30 1668 H 166.279 -6.10413 0.150908 0
M  V30 1669 H 167.693 -5.26759 2.26269 0
M  V30 1670 H 166.09 -5.16944 3.04776 0
M  V30 1671 H 167.16 -3.75603 3.06677 0
M  V30 1672 N 168.503 -0.877838 -1.30888 0
M  V30 1673 C 169.413 -0.343096 -2.32078 0
M  V30 1674 C 170.429 0.551022 -1.65045 0
M  V30 1675 O 171.605 0.445854 -1.96403 0
M  V30 1676 C 168.67 0.439905 -3.43898 0
M  V30 1677 C 167.731 -0.483111 -4.26573 0
M  V30 1678 C 166.964 0.262616 -5.33053 0
M  V30 1679 O 167.187 1.48967 -5.50604 0
M  V30 1680 O 166.121 -0.383593 -6.00676 0
M  V30 1681 H 169.947 -1.18203 -2.79753 0
M  V30 1682 H 167.532 -0.64145 -1.34929 0
M  V30 1683 H 169.414 0.883504 -4.12034 0
M  V30 1684 H 168.089 1.25526 -2.98371 0
M  V30 1685 H 166.996 -0.975374 -3.61161 0
M  V30 1686 H 168.329 -1.26427 -4.75686 0
M  V30 1687 N 169.982 1.44106 -0.638065 0
M  V30 1688 C 171.23 2.01579 -0.145043 0
M  V30 1689 C 171.551 1.50496 1.24 0
M  V30 1690 O 170.821 0.711374 1.82527 0
M  V30 1691 H 169.401 0.745282 -0.05063 0
M  V30 1692 H 172.063 1.76516 -0.826327 0
M  V30 1693 H 171.159 3.11877 -0.118039 0
M  V30 1694 N 171.46 0.379036 1.52974 0
M  V30 1695 C 172.709 -0.207612 2.00629 0
M  V30 1696 C 173.022 -1.48758 1.27006 0
M  V30 1697 O 174.228 -2.15365 1.65318 0
M  V30 1698 C 172.684 -0.42053 3.57435 0
M  V30 1699 C 172.292 0.845587 4.39948 0
M  V30 1700 C 174.036 -0.964102 4.13407 0
M  V30 1701 C 171.943 0.601513 5.88333 0
M  V30 1702 H 170.873 -0.0813591 0.749598 0
M  V30 1703 H 173.524 0.499853 1.76561 0
M  V30 1704 H 171.906 -1.18959 3.7771 0
M  V30 1705 H 173.08 1.61848 4.31442 0
M  V30 1706 H 171.395 1.31336 3.95145 0
M  V30 1707 H 173.992 -1.16225 5.21916 0
M  V30 1708 H 174.335 -1.93019 3.68849 0
M  V30 1709 H 174.868 -0.25487 3.96983 0
M  V30 1710 H 171.607 1.53831 6.37194 0
M  V30 1711 H 171.127 -0.132628 5.99653 0
M  V30 1712 H 172.806 0.232134 6.46583 0
M  V30 1713 N 172.938 -1.57226 0.108567 0
M  V30 1714 C 173.885 -2.14756 -0.845481 0
M  V30 1715 C 174.855 -1.06971 -1.27068 0
M  V30 1716 O 176.04 -1.34827 -1.35005 0
M  V30 1717 C 173.18 -2.74298 -2.09415 0
M  V30 1718 C 172.293 -3.96358 -1.71826 0
M  V30 1719 C 171.428 -4.44021 -2.9158 0
M  V30 1720 C 170.467 -5.58637 -2.50181 0
M  V30 1721 N 169.604 -6.01091 -3.62814 0
M  V30 1722 H 174.444 -2.95961 -0.348035 0
M  V30 1723 H 171.981 -1.46226 -0.160106 0
M  V30 1724 H 173.939 -3.06945 -2.82561 0
M  V30 1725 H 172.569 -1.95801 -2.56636 0
M  V30 1726 H 171.621 -3.69939 -0.885947 0
M  V30 1727 H 172.933 -4.79504 -1.37394 0
M  V30 1728 H 172.087 -4.78522 -3.72963 0
M  V30 1729 H 170.826 -3.59803 -3.29231 0
M  V30 1730 H 169.831 -5.23751 -1.67228 0
M  V30 1731 H 171.056 -6.44613 -2.13659 0
M  V30 1732 H 169.002 -5.19817 -4.00158 0
M  V30 1733 H 168.919 -6.79066 -3.32273 0
M  V30 1734 H 170.187 -6.40227 -4.44668 0
M  V30 1735 N 174.416 0.165178 -1.56732 0
M  V30 1736 C 175.662 0.882112 -1.82611 0
M  V30 1737 C 175.995 1.81628 -0.687378 0
M  V30 1738 O 175.27 1.92009 0.310267 0
M  V30 1739 C 175.553 1.67245 -3.18906 0
M  V30 1740 C 175.406 0.760987 -4.43316 0
M  V30 1741 C 176.725 2.63884 -3.52212 0
M  V30 1742 H 173.844 0.319242 -0.664269 0
M  V30 1743 H 176.486 0.148052 -1.89422 0
M  V30 1744 H 174.636 2.29824 -3.1323 0
M  V30 1745 H 176.308 0.147596 -4.61064 0
M  V30 1746 H 174.551 0.0694102 -4.33744 0
M  V30 1747 H 175.222 1.34962 -5.35247 0
M  V30 1748 H 177.698 2.11429 -3.58381 0
M  V30 1749 H 176.574 3.16245 -4.48643 0
M  V30 1750 H 176.835 3.44377 -2.77231 0
M  V30 1751 N 175.894 1.51508 0.433938 0
M  V30 1752 C 177.142 1.6402 1.18075 0
M  V30 1753 C 177.463 0.360328 1.91642 0
M  V30 1754 O 176.733 -0.623945 1.85698 0
M  V30 1755 H 175.313 0.6045 0.43885 0
M  V30 1756 H 177.975 1.88452 0.497178 0
M  V30 1757 H 177.071 2.46949 1.90847 0
M  V30 1758 N 177.372 -0.689602 1.41712 0
M  V30 1759 C 178.322 -1.79571 1.40493 0
M  V30 1760 C 179.306 -1.58473 0.278409 0
M  V30 1761 O 180.498 -1.69204 0.519532 0
M  V30 1762 C 177.627 -3.17923 1.29536 0
M  V30 1763 C 176.713 -3.44695 2.47075 0
M  V30 1764 N 177.104 -3.42132 3.72531 0
M  V30 1765 C 175.402 -3.75269 2.41017 0
M  V30 1766 C 176.103 -3.67976 4.50521 0
M  V30 1767 N 175.079 -3.88014 3.80718 0
M  V30 1768 H 178.881 -1.75961 2.35404 0
M  V30 1769 H 176.395 -0.889839 1.35851 0
M  V30 1770 H 178.392 -3.97167 1.26745 0
M  V30 1771 H 177.052 -3.22741 0.356153 0
M  V30 1772 H 178.063 -3.22375 4.05333 0
M  V30 1773 H 174.74 -3.87421 1.55599 0
M  V30 1774 H 176.13 -3.7208 5.59469 0
M  V30 1775 N 178.85 -1.27639 -0.924453 0
M  V30 1776 C 179.76 -1.12466 -2.05885 0
M  V30 1777 C 180.776 -0.053869 -1.73917 0
M  V30 1778 O 181.952 -0.261012 -1.99702 0
M  V30 1779 C 179.017 -0.776768 -3.37886 0
M  V30 1780 C 178.078 -1.92878 -3.83532 0
M  V30 1781 C 177.311 -1.59739 -5.09234 0
M  V30 1782 O 177.534 -0.506782 -5.68144 0
M  V30 1783 O 176.468 -2.43761 -5.50331 0
M  V30 1784 H 180.294 -2.07671 -2.21599 0
M  V30 1785 H 177.879 -1.06857 -1.04413 0
M  V30 1786 H 179.761 -0.596229 -4.17161 0
M  V30 1787 H 178.436 0.145732 -3.23372 0
M  V30 1788 H 177.343 -2.1644 -3.0513 0
M  V30 1789 H 178.676 -2.8316 -4.02593 0
M  V30 1790 N 180.328 1.1314 -1.09713 0
M  V30 1791 C 181.744 1.36477 -0.827423 0
M  V30 1792 C 181.944 1.93654 0.556817 0
M  V30 1793 O 181 2.15791 1.31112 0
M  V30 1794 C 182.313 2.31334 -1.92106 0
M  V30 1795 C 183.861 2.44943 -1.94864 0
M  V30 1796 C 184.336 3.4311 -3.0338 0
M  V30 1797 N 185.827 3.50662 -3.02639 0
M  V30 1798 C 186.562 4.2651 -3.83246 0
M  V30 1799 N 186.058 5.05485 -4.73768 0
M  V30 1800 N 187.851 4.2184 -3.71493 0
M  V30 1801 H 180.002 0.743807 -1.9895 0
M  V30 1802 H 182.265 0.389823 -0.864143 0
M  V30 1803 H 181.971 1.96483 -2.91698 0
M  V30 1804 H 181.845 3.31381 -1.80184 0
M  V30 1805 H 184.232 2.79079 -0.959099 0
M  V30 1806 H 184.313 1.4481 -2.10864 0
M  V30 1807 H 183.957 3.09704 -4.02549 0
M  V30 1808 H 183.887 4.43055 -2.84622 0
M  V30 1809 H 186.378 2.94315 -2.37039 0
M  V30 1810 H 186.691 5.60675 -5.3185 0
M  V30 1811 H 185.036 5.04708 -4.77802 0
M  V30 1812 H 188.227 3.5922 -3.00131 0
M  V30 1813 H 188.4 4.80697 -4.3455 0
M  V30 1814 N 181.806 0.884767 1.30421 0
M  V30 1815 C 182.753 0.349642 2.28136 0
M  V30 1816 C 183.723 -0.560061 1.56373 0
M  V30 1817 O 184.908 -0.488524 1.8444 0
M  V30 1818 C 182.048 -0.42999 3.42411 0
M  V30 1819 C 181.161 0.508907 4.28992 0
M  V30 1820 C 180.296 -0.286301 5.30428 0
M  V30 1821 C 179.335 0.648079 6.08659 0
M  V30 1822 N 178.472 -0.111792 7.02011 0
M  V30 1823 H 183.312 1.18807 2.73293 0
M  V30 1824 H 180.849 0.597231 1.3443 0
M  V30 1825 H 182.807 -0.897923 4.07423 0
M  V30 1826 H 181.437 -1.23299 2.98324 0
M  V30 1827 H 180.489 1.09533 3.64289 0
M  V30 1828 H 181.801 1.22475 4.8353 0
M  V30 1829 H 180.955 -0.816098 6.01186 0
M  V30 1830 H 179.694 -1.03536 4.76583 0
M  V30 1831 H 178.699 1.18951 5.36778 0
M  V30 1832 H 179.924 1.39623 6.64592 0
M  V30 1833 H 177.87 -0.843395 6.50556 0
M  V30 1834 H 177.787 0.544429 7.54037 0
M  V30 1835 H 179.055 -0.622339 7.77012 0
M  V30 1836 N 183.284 -1.43765 0.645699 0
M  V30 1837 C 184.53 -2.02197 0.156271 0
M  V30 1838 C 184.863 -1.50776 -1.22393 0
M  V30 1839 O 184.138 -0.697771 -1.81553 0
M  V30 1840 C 184.421 -3.59749 0.158872 0
M  V30 1841 C 184.274 -4.21419 1.57245 0
M  V30 1842 C 185.593 -4.37149 -0.50879 0
M  V30 1843 H 182.712 -0.734694 0.0582602 0
M  V30 1844 H 185.354 -1.71157 0.824951 0
M  V30 1845 H 183.504 -3.86325 -0.410525 0
M  V30 1846 H 185.176 -4.059 2.19186 0
M  V30 1847 H 183.419 -3.78356 2.122 0
M  V30 1848 H 184.09 -5.30482 1.52619 0
M  V30 1849 H 186.566 -4.16093 -0.024412 0
M  V30 1850 H 185.442 -5.4683 -0.476213 0
M  V30 1851 H 185.703 -4.12839 -1.58165 0
M  V30 1852 N 184.763 -0.387143 -1.52771 0
M  V30 1853 C 185.695 0.484089 -2.2403 0
M  V30 1854 C 186.708 1.02849 -1.26198 0
M  V30 1855 O 187.897 0.931186 -1.52286 0
M  V30 1856 C 184.997 1.68337 -2.94136 0
M  V30 1857 C 184.17 1.26672 -4.18656 0
M  V30 1858 C 183.229 2.33045 -4.7178 0
M  V30 1859 O 182.255 1.94541 -5.34923 0
M  V30 1860 N 183.457 3.64929 -4.5145 0
M  V30 1861 H 186.222 -0.126404 -2.99433 0
M  V30 1862 H 183.783 -0.213392 -1.60488 0
M  V30 1863 H 185.775 2.39019 -3.26577 0
M  V30 1864 H 184.345 2.20025 -2.22053 0
M  V30 1865 H 183.565 0.388878 -3.92277 0
M  V30 1866 H 184.853 0.964964 -4.99566 0
M  V30 1867 H 184.251 3.98974 -4.01044 0
M  V30 1868 H 182.808 4.31651 -4.88386 0
M  V30 1869 N 186.241 1.57166 -0.116904 0
M  V30 1870 C 187.171 2.18222 0.830759 0
M  V30 1871 C 188.152 1.12167 1.27877 0
M  V30 1872 O 189.337 1.40394 1.34176 0
M  V30 1873 C 186.467 2.77996 2.08172 0
M  V30 1874 C 185.421 3.89614 1.77157 0
M  V30 1875 C 184.747 4.36187 3.09265 0
M  V30 1876 C 186.047 5.1181 1.04151 0
M  V30 1877 H 187.741 2.97664 0.321992 0
M  V30 1878 H 185.287 1.4318 0.153434 0
M  V30 1879 H 187.24 3.19366 2.74924 0
M  V30 1880 H 185.964 1.9584 2.6137 0
M  V30 1881 H 184.623 3.48816 1.12796 0
M  V30 1882 H 184.271 3.50893 3.60393 0
M  V30 1883 H 183.971 5.11455 2.89288 0
M  V30 1884 H 185.495 4.80207 3.77139 0
M  V30 1885 H 186.909 5.50214 1.61052 0
M  V30 1886 H 185.306 5.92648 0.942762 0
M  V30 1887 H 186.376 4.84892 0.0279022 0
M  V30 1888 N 187.719 -0.156864 1.56817 0
M  V30 1889 C 188.965 -0.872416 1.83076 0
M  V30 1890 C 189.298 -1.81261 0.697001 0
M  V30 1891 O 188.573 -1.92171 -0.30008 0
M  V30 1892 C 188.856 -1.65551 3.19789 0
M  V30 1893 C 188.709 -0.737467 4.43713 0
M  V30 1894 C 190.028 -2.62012 3.53606 0
M  V30 1895 H 187.147 -0.315715 0.665953 0
M  V30 1896 H 189.789 -0.138004 1.89498 0
M  V30 1897 H 187.939 -2.28159 3.14445 0
M  V30 1898 H 189.611 -0.123143 4.61136 0
M  V30 1899 H 187.854 -0.0464067 4.33775 0
M  V30 1900 H 188.525 -1.32122 5.35955 0
M  V30 1901 H 191.001 -2.09525 3.59497 0
M  V30 1902 H 189.877 -3.13861 4.50314 0
M  V30 1903 H 190.138 -3.42902 2.79053 0
M  V30 1904 N 189.197 -1.51736 -0.425897 0
M  V30 1905 C 190.425 -1.68794 -1.1965 0
M  V30 1906 C 190.84 -0.390164 -1.84725 0
M  V30 1907 O 190.197 0.632376 -1.71194 0
M  V30 1908 C 190.248 -2.81174 -2.27208 0
M  V30 1909 O 189.969 -4.05925 -1.64793 0
M  V30 1910 C 191.47 -3.09599 -3.17275 0
M  V30 1911 H 188.69 -0.566128 -0.360194 0
M  V30 1912 H 191.234 -1.98211 -0.503249 0
M  V30 1913 H 189.389 -2.54324 -2.9223 0
M  V30 1914 H 189.803 -4.68423 -2.35967 0
M  V30 1915 H 191.277 -3.91786 -3.88854 0
M  V30 1916 H 191.754 -2.22468 -3.78688 0
M  V30 1917 H 192.36 -3.38151 -2.57941 0
M  V30 1918 N 190.675 0.682077 -1.42076 0
M  V30 1919 C 191.952 1.43755 -1.32642 0
M  V30 1920 C 192.332 2.11063 0.0396611 0
M  V30 1921 O 191.68 2.02701 1.05474 0
M  V30 1922 C 191.89 2.44596 -2.48946 0
M  V30 1923 C 193.238 3.09454 -2.9073 0
M  V30 1924 O 194.262 2.54922 -2.48783 0
M  V30 1925 O 193.121 4.08253 -3.63307 0
M  V30 1926 H 190.215 0.640857 -0.522715 0
M  V30 1927 H 192.761 0.711415 -1.54068 0
M  V30 1928 H 191.533 1.93609 -3.40046 0
M  V30 1929 H 191.156 3.24701 -2.29467 0
M  V30 1930 N 192.153 1.28127 0.917671 0
M  V30 1931 C 193.569 1.05749 1.19538 0
M  V30 1932 C 193.769 -0.202633 2.00479 0
M  V30 1933 O 192.825 -0.905382 2.3571 0
M  V30 1934 C 194.138 2.30273 1.93378 0
M  V30 1935 C 195.686 2.35412 2.06277 0
M  V30 1936 C 196.161 3.59692 2.83524 0
M  V30 1937 N 197.652 3.60309 2.91087 0
M  V30 1938 C 198.387 4.53147 3.51348 0
M  V30 1939 N 197.883 5.563 4.12919 0
M  V30 1940 N 199.676 4.40751 3.48849 0
M  V30 1941 H 191.827 2.09024 0.377184 0
M  V30 1942 H 194.09 0.919798 0.22951 0
M  V30 1943 H 193.796 3.22055 1.41328 0
M  V30 1944 H 193.67 2.36378 2.93947 0
M  V30 1945 H 196.057 1.4413 2.57508 0
M  V30 1946 H 196.138 2.33304 1.04895 0
M  V30 1947 H 195.782 4.51316 2.32973 0
M  V30 1948 H 195.712 3.59054 3.85211 0
M  V30 1949 H 198.203 2.85714 2.47338 0
M  V30 1950 H 198.516 6.2329 4.56869 0
M  V30 1951 H 196.861 5.60131 4.11435 0
M  V30 1952 H 200.052 3.59367 2.99955 0
M  V30 1953 H 200.225 5.13291 3.9552 0
M  V30 1954 N 193.631 -1.12557 1.10312 0
M  V30 1955 C 194.908 -1.80363 0.756878 0
M  V30 1956 C 195.288 -1.97067 -0.756824 0
M  V30 1957 O 194.636 -1.54601 -1.68259 0
M  V30 1958 C 194.846 -3.14812 1.50647 0
M  V30 1959 C 196.194 -3.90029 1.67817 0
M  V30 1960 O 197.218 -3.24464 1.46974 0
M  V30 1961 O 196.077 -5.07652 2.02365 0
M  V30 1962 H 193.171 -0.780667 0.272926 0
M  V30 1963 H 195.717 -1.19404 1.20586 0
M  V30 1964 H 194.489 -2.97936 2.53672 0
M  V30 1965 H 194.112 -3.83478 1.05026 0
M  V30 1966 N 195.109 -0.891671 -1.2995 0
M  V30 1967 C 196.059 -0.334811 -2.25528 0
M  V30 1968 C 197.043 0.540553 -1.51548 0
M  V30 1969 O 198.235 0.383882 -1.72787 0
M  V30 1970 C 195.364 0.44374 -3.4042 0
M  V30 1971 C 194.45 -0.44609 -4.21747 0
M  V30 1972 N 194.841 -1.54963 -4.81477 0
M  V30 1973 C 193.139 -0.242415 -4.45341 0
M  V30 1974 C 193.84 -2.10015 -5.42465 0
M  V30 1975 N 192.816 -1.39423 -5.25416 0
M  V30 1976 H 196.618 -1.17792 -2.69262 0
M  V30 1977 H 194.132 -0.741822 -1.44467 0
M  V30 1978 H 196.129 0.859362 -4.07947 0
M  V30 1979 H 194.789 1.28421 -2.98225 0
M  V30 1980 H 195.8 -1.93244 -4.80497 0
M  V30 1981 H 192.477 0.560342 -4.13723 0
M  V30 1982 H 193.867 -3.02724 -5.9984 0
M  V30 1983 N 196.587 1.43421 -0.653314 0
M  V30 1984 C 197.834 2.01812 -0.166745 0
M  V30 1985 C 198.162 1.51535 1.21931 0
M  V30 1986 O 197.417 0.698975 1.82792 0
M  V30 1987 C 197.716 3.57176 -0.126623 0
M  V30 1988 C 197.382 4.26798 -1.45444 0
M  V30 1989 C 196.044 4.45534 -1.81805 0
M  V30 1990 C 198.396 4.66225 -2.32989 0
M  V30 1991 C 195.724 5.00961 -3.05377 0
M  V30 1992 C 198.076 5.23021 -3.55853 0
M  V30 1993 C 196.74 5.39973 -3.9241 0
M  V30 1994 H 196.01 0.738484 -0.0610162 0
M  V30 1995 H 198.657 1.71896 -0.84404 0
M  V30 1996 H 196.962 3.86634 0.634123 0
M  V30 1997 H 198.659 4.00112 0.266723 0
M  V30 1998 H 195.249 4.12561 -1.16153 0
M  V30 1999 H 199.433 4.51443 -2.06187 0
M  V30 2000 H 194.689 5.12271 -3.3375 0
M  V30 2001 H 198.863 5.52518 -4.23907 0
M  V30 2002 H 196.49 5.82687 -4.88242 0
M  V30 2003 N 198.065 0.39524 1.52563 0
M  V30 2004 C 199.314 -0.186321 2.00838 0
M  V30 2005 C 199.627 -1.47402 1.28577 0
M  V30 2006 O 200.833 -2.13599 1.67593 0
M  V30 2007 C 199.289 -0.382595 3.57861 0
M  V30 2008 C 198.897 0.892202 4.39026 0
M  V30 2009 C 200.641 -0.9202 4.14406 0
M  V30 2010 C 198.548 0.66388 5.87662 0
M  V30 2011 H 197.478 -0.0734041 0.750418 0
M  V30 2012 H 200.129 0.518552 1.76021 0
M  V30 2013 H 198.511 -1.14946 3.7895 0
M  V30 2014 H 199.685 1.66414 4.29701 0
M  V30 2015 H 198 1.35519 3.9373 0
M  V30 2016 H 200.597 -1.10683 5.23119 0
M  V30 2017 H 200.94 -1.89096 3.70875 0
M  V30 2018 H 201.473 -0.212751 3.97231 0
M  V30 2019 H 198.212 1.6058 6.35527 0
M  V30 2020 H 197.732 -0.0690193 5.9976 0
M  V30 2021 H 199.411 0.300699 6.46301 0
M  V30 2022 N 199.544 -1.57102 0.125237 0
M  V30 2023 C 200.96 -1.57915 -0.231322 0
M  V30 2024 C 201.16 -1.13833 -1.66266 0
M  V30 2025 O 200.216 -0.828581 -2.38518 0
M  V30 2026 C 201.529 -3.00699 0.00766489 0
M  V30 2027 C 203.077 -3.12947 -0.0577483 0
M  V30 2028 C 203.552 -4.57742 0.153626 0
M  V30 2029 N 205.043 -4.63092 0.0998073 0
M  V30 2030 C 205.778 -5.72905 0.238174 0
M  V30 2031 N 205.274 -6.91445 0.433057 0
M  V30 2032 N 207.067 -5.6182 0.177308 0
M  V30 2033 H 199.218 -1.84055 1.06007 0
M  V30 2034 H 201.481 -0.850905 0.417929 0
M  V30 2035 H 201.187 -3.3726 0.997431 0
M  V30 2036 H 201.061 -3.70236 -0.721452 0
M  V30 2037 H 203.448 -2.7624 -1.03804 0
M  V30 2038 H 203.529 -2.4594 0.70335 0
M  V30 2039 H 203.173 -4.95149 1.13092 0
M  V30 2040 H 203.103 -5.22848 -0.627534 0
M  V30 2041 H 205.594 -3.77871 -0.047051 0
M  V30 2042 H 205.907 -7.70985 0.529332 0
M  V30 2043 H 204.252 -6.93415 0.469109 0
M  V30 2044 H 207.443 -4.68093 0.0259748 0
M  V30 2045 H 207.616 -6.47357 0.288582 0
M  V30 2046 N 201.022 0.148545 -1.56898 0
M  V30 2047 C 202.25 0.876389 -1.87422 0
M  V30 2048 C 202.665 1.74809 -0.713256 0
M  V30 2049 O 202.022 1.79725 0.317025 0
M  V30 2050 C 202.073 1.73438 -3.17178 0
M  V30 2051 O 201.794 0.897809 -4.28802 0
M  V30 2052 C 203.295 2.56993 -3.61205 0
M  V30 2053 H 200.515 0.253489 -0.621277 0
M  V30 2054 H 203.059 0.141798 -2.04008 0
M  V30 2055 H 201.214 2.42205 -3.0235 0
M  V30 2056 H 201.628 1.48672 -5.02988 0
M  V30 2057 H 203.102 3.12773 -4.54838 0
M  V30 2058 H 203.579 3.32958 -2.86419 0
M  V30 2059 H 204.185 1.9352 -3.78722 0
M  V30 2060 N 202.5 1.5196 0.417844 0
M  V30 2061 C 203.43 1.77634 1.51554 0
M  V30 2062 C 204.411 0.626918 1.58126 0
M  V30 2063 O 205.596 0.871632 1.7354 0
M  V30 2064 C 202.726 1.91911 2.8946 0
M  V30 2065 C 201.68 3.07463 2.97743 0
M  V30 2066 C 201.006 3.06951 4.37819 0
M  V30 2067 C 202.306 4.47082 2.70027 0
M  V30 2068 H 204 2.6955 1.3032 0
M  V30 2069 H 201.546 1.29706 0.625492 0
M  V30 2070 H 203.499 2.08455 3.6623 0
M  V30 2071 H 202.223 0.966598 3.11969 0
M  V30 2072 H 200.882 2.90656 2.23416 0
M  V30 2073 H 200.53 2.09438 4.57323 0
M  V30 2074 H 200.23 3.84556 4.44286 0
M  V30 2075 H 201.754 3.25613 5.16535 0
M  V30 2076 H 203.168 4.6414 3.36522 0
M  V30 2077 H 201.565 5.2654 2.87881 0
M  V30 2078 H 202.635 4.55777 1.65514 0
M  V30 2079 N 203.978 -0.674533 1.42435 0
M  V30 2080 C 205.203 -1.46784 1.46524 0
M  V30 2081 C 205.628 -1.87938 0.078066 0
M  V30 2082 O 204.986 -1.56014 -0.92354 0
M  V30 2083 C 205.034 -2.69307 2.39805 0
M  V30 2084 O 204.138 -3.67587 1.86959 0
M  V30 2085 H 203.479 -0.440959 0.496439 0
M  V30 2086 H 206.009 -0.827326 1.87127 0
M  V30 2087 H 206.019 -3.17374 2.56393 0
M  V30 2088 H 204.694 -2.38692 3.40586 0
M  V30 2089 H 203.271 -3.2662 1.79927 0
M  V30 2090 N 205.456 -1.28612 -0.910864 0
M  V30 2091 C 206.386 -1.15326 -2.03032 0
M  V30 2092 C 207.367 -0.0502924 -1.70026 0
M  V30 2093 O 208.552 -0.227797 -1.92859 0
M  V30 2094 C 205.682 -0.817343 -3.37545 0
M  V30 2095 C 204.636 -1.8754 -3.84724 0
M  V30 2096 C 203.962 -1.39305 -5.16235 0
M  V30 2097 C 205.262 -3.28244 -4.06267 0
M  V30 2098 H 206.956 -2.08975 -2.14406 0
M  V30 2099 H 204.502 -1.00612 -1.03021 0
M  V30 2100 H 206.455 -0.711151 -4.15356 0
M  V30 2101 H 205.179 0.154846 -3.26233 0
M  V30 2102 H 203.838 -1.97079 -3.09121 0
M  V30 2103 H 203.486 -0.409846 -5.01328 0
M  V30 2104 H 203.186 -2.10057 -5.48771 0
M  V30 2105 H 204.71 -1.30014 -5.96598 0
M  V30 2106 H 206.124 -3.21611 -4.74594 0
M  V30 2107 H 204.521 -3.96855 -4.5014 0
M  V30 2108 H 205.591 -3.72048 -3.10979 0
M  V30 2109 N 206.934 1.1197 -1.10907 0
M  V30 2110 C 207.881 2.17846 -0.762345 0
M  V30 2111 C 208.851 1.63995 0.263599 0
M  V30 2112 O 210.036 1.90273 0.141773 0
M  V30 2113 C 207.176 3.44487 -0.205651 0
M  V30 2114 C 206.289 4.12369 -1.28748 0
M  V30 2115 C 205.424 5.26674 -0.691919 0
M  V30 2116 C 204.463 5.86431 -1.75399 0
M  V30 2117 N 203.6 6.92142 -1.17833 0
M  V30 2118 H 208.44 2.46851 -1.6694 0
M  V30 2119 H 205.977 1.21188 -0.833776 0
M  V30 2120 H 207.935 4.16981 0.135037 0
M  V30 2121 H 206.565 3.15884 0.664613 0
M  V30 2122 H 205.617 3.38003 -1.74522 0
M  V30 2123 H 206.929 4.52844 -2.09125 0
M  V30 2124 H 206.083 6.05953 -0.300963 0
M  V30 2125 H 204.822 4.8749 0.143232 0
M  V30 2126 H 203.827 5.05835 -2.15432 0
M  V30 2127 H 205.052 6.27685 -2.59208 0
M  V30 2128 H 202.998 6.54985 -0.364725 0
M  V30 2129 H 202.915 7.31242 -1.91887 0
M  V30 2130 H 204.183 7.75237 -0.81408 0
M  V30 2131 N 208.412 0.89855 1.29475 0
M  V30 2132 C 209.823 0.572537 1.77705 0
M  V30 2133 C 210.174 -0.911778 1.73727 0
M  V30 2134 O 209.299 -1.71288 1.32247 0
M  V30 2135 C 209.894 1.03252 3.22683 0
M  V30 2136 C 208.453 0.757687 3.68695 0
M  V30 2137 C 207.6 1.20787 2.49612 0
M  V30 2138 H 210.551 1.08139 1.16153 0
M  V30 2139 H 210.572 0.367307 3.78723 0
M  V30 2140 H 210.084 2.11285 3.25546 0
M  V30 2141 H 208.185 -0.310079 3.71308 0
M  V30 2142 H 208.298 1.35476 4.59547 0
M  V30 2143 H 206.662 0.626888 2.46865 0
M  V30 2144 H 207.445 2.29622 2.55203 0
M  V30 2145 N 209.89 -1.43072 0.660911 0
M  V30 2146 C 210.82 -2.33497 -0.0122829 0
M  V30 2147 C 211.801 -1.49903 -0.803925 0
M  V30 2148 O 212.986 -1.78546 -0.763864 0
M  V30 2149 C 210.116 -3.33363 -0.973994 0
M  V30 2150 C 209.07 -4.27003 -0.291928 0
M  V30 2151 C 208.396 -5.16967 -1.36562 0
M  V30 2152 C 209.696 -5.15816 0.820462 0
M  V30 2153 H 211.39 -2.90038 0.742873 0
M  V30 2154 H 208.936 -1.39461 0.358688 0
M  V30 2155 H 210.889 -3.95524 -1.45392 0
M  V30 2156 H 209.613 -2.75095 -1.7604 0
M  V30 2157 H 208.272 -3.66217 0.167623 0
M  V30 2158 H 207.92 -4.55034 -2.14366 0
M  V30 2159 H 207.62 -5.80441 -0.914454 0
M  V30 2160 H 209.144 -5.82003 -1.84675 0
M  V30 2161 H 210.558 -5.71742 0.422366 0
M  V30 2162 H 208.955 -5.8805 1.19656 0
M  V30 2163 H 210.025 -4.55045 1.67518 0
M  V30 2164 N 211.368 -0.403325 -1.52352 0
M  V30 2165 C 212.298 0.416205 -2.29761 0
M  V30 2166 C 213.279 1.05123 -1.33728 0
M  V30 2167 O 214.464 1.06134 -1.62632 0
M  V30 2168 C 211.594 1.53624 -3.11475 0
M  V30 2169 C 210.548 1.02653 -4.15507 0
M  V30 2170 C 209.874 2.23971 -4.85532 0
M  V30 2171 C 211.174 0.08463 -5.22231 0
M  V30 2172 H 212.868 -0.229701 -2.98518 0
M  V30 2173 H 210.414 -0.111913 -1.43564 0
M  V30 2174 H 212.367 2.1165 -3.64393 0
M  V30 2175 H 211.091 2.20994 -2.40477 0
M  V30 2176 H 209.75 0.46871 -3.63591 0
M  V30 2177 H 209.398 2.89883 -4.11068 0
M  V30 2178 H 209.098 1.90521 -5.55856 0
M  V30 2179 H 210.622 2.82614 -5.41259 0
M  V30 2180 H 212.036 0.573509 -5.70424 0
M  V30 2181 H 210.433 -0.160783 -5.99885 0
M  V30 2182 H 211.503 -0.86237 -4.7717 0
M  V30 2183 N 212.846 1.57033 -0.133567 0
M  V30 2184 C 214.093 1.95686 0.520877 0
M  V30 2185 C 214.421 1.0177 1.6575 0
M  V30 2186 O 213.676 0.0443195 1.9565 0
M  V30 2187 C 213.975 3.40674 1.08057 0
M  V30 2188 C 213.641 4.50855 0.0637899 0
M  V30 2189 C 212.303 4.80716 -0.215757 0
M  V30 2190 C 214.655 5.17398 -0.62835 0
M  V30 2191 C 211.983 5.74433 -1.19348 0
M  V30 2192 C 214.335 6.12167 -1.5948 0
M  V30 2193 C 212.999 6.40414 -1.88218 0
M  V30 2194 H 212.269 0.716067 0.190602 0
M  V30 2195 H 214.916 1.9026 -0.217556 0
M  V30 2196 H 213.221 3.42865 1.89606 0
M  V30 2197 H 214.918 3.67902 1.59529 0
M  V30 2198 H 211.508 4.27605 0.291855 0
M  V30 2199 H 215.692 4.94472 -0.425562 0
M  V30 2200 H 210.948 5.94616 -1.42272 0
M  V30 2201 H 215.122 6.6281 -2.13671 0
M  V30 2202 H 212.749 7.12838 -2.64133 0
M  V30 2203 N 214.325 -0.140222 1.56975 0
M  V30 2204 C 215.235 -1.19223 2.02047 0
M  V30 2205 C 216.251 -1.46612 0.937062 0
M  V30 2206 O 217.427 -1.58148 1.24704 0
M  V30 2207 C 214.492 -2.50414 2.39778 0
M  V30 2208 C 213.553 -2.30612 3.621 0
M  V30 2209 C 212.786 -3.55547 3.98023 0
M  V30 2210 O 213.009 -4.62004 3.34528 0
M  V30 2211 O 211.943 -3.47808 4.91237 0
M  V30 2212 H 215.769 -0.839559 2.91865 0
M  V30 2213 H 213.354 -0.349453 1.45256 0
M  V30 2214 H 215.236 -3.27747 2.64877 0
M  V30 2215 H 213.911 -2.85198 1.53114 0
M  V30 2216 H 212.818 -1.51207 3.4218 0
M  V30 2217 H 214.151 -2.00741 4.49404 0
M  V30 2218 N 215.803 -1.52179 -0.40978 0
M  V30 2219 C 217.052 -1.65434 -1.15388 0
M  V30 2220 C 217.365 -0.390056 -1.91671 0
M  V30 2221 O 218.571 -0.402399 -2.68501 0
M  V30 2222 C 217.027 -2.92279 -2.10003 0
M  V30 2223 C 216.635 -4.25813 -1.39239 0
M  V30 2224 C 218.379 -3.14897 -2.84675 0
M  V30 2225 C 216.286 -5.43782 -2.32498 0
M  V30 2226 H 215.216 -0.616267 -0.434432 0
M  V30 2227 H 217.867 -1.78666 -0.418401 0
M  V30 2228 H 216.249 -2.72744 -2.871 0
M  V30 2229 H 217.423 -4.55828 -0.675099 0
M  V30 2230 H 215.738 -4.09292 -0.766097 0
M  V30 2231 H 218.335 -4.0021 -3.54593 0
M  V30 2232 H 218.678 -2.29103 -3.47588 0
M  V30 2233 H 219.211 -3.34901 -2.14677 0
M  V30 2234 H 215.95 -6.3192 -1.74233 0
M  V30 2235 H 215.47 -5.18106 -3.02201 0
M  V30 2236 H 217.149 -5.76834 -2.93038 0
M  V30 2237 N 217.281 0.66697 -1.42791 0
M  V30 2238 C 218.692 1.2478 -1.38877 0
M  V30 2239 C 219.043 1.96012 -0.0859426 0
M  V30 2240 O 218.168 2.00463 0.815081 0
M  V30 2241 C 218.763 2.26938 -2.51564 0
M  V30 2242 C 217.322 2.80529 -2.50959 0
M  V30 2243 C 216.469 1.54965 -2.29959 0
M  V30 2244 H 219.42 0.459853 -1.51892 0
M  V30 2245 H 219.441 3.08834 -2.22265 0
M  V30 2246 H 218.953 1.75065 -3.46372 0
M  V30 2247 H 217.054 3.36502 -1.59991 0
M  V30 2248 H 217.167 3.29012 -3.48265 0
M  V30 2249 H 215.531 1.81817 -1.78366 0
M  V30 2250 H 216.314 1.05047 -3.26833 0
M  V30 2251 N 218.759 1.29093 0.90403 0
M  V30 2252 C 220.007 1.16583 1.65085 0
M  V30 2253 C 220.328 -0.283933 1.92922 0
M  V30 2254 O 219.598 -1.19509 1.55224 0
M  V30 2255 H 218.178 0.428467 0.611903 0
M  V30 2256 H 220.84 1.61959 1.08422 0
M  V30 2257 H 219.936 1.71266 2.6091 0
M  V30 2258 N 220.237 -1.11381 1.11499 0
M  V30 2259 C 221.484 -1.83132 0.864231 0
M  V30 2260 C 221.812 -1.84683 -0.610114 0
M  V30 2261 O 221.067 -1.29589 -1.46646 0
M  V30 2262 C 221.366 -3.30026 1.37177 0
M  V30 2263 C 221.032 -3.48634 2.85946 0
M  V30 2264 C 219.694 -3.53421 3.26569 0
M  V30 2265 C 222.046 -3.54837 3.81759 0
M  V30 2266 C 219.374 -3.61967 4.61733 0
M  V30 2267 C 221.726 -3.64915 5.1674 0
M  V30 2268 C 220.39 -3.67962 5.5692 0
M  V30 2269 H 219.66 -0.670127 0.316245 0
M  V30 2270 H 222.307 -1.31354 1.3935 0
M  V30 2271 H 220.612 -3.84304 0.762753 0
M  V30 2272 H 222.309 -3.84034 1.15408 0
M  V30 2273 H 218.899 -3.45579 2.53521 0
M  V30 2274 H 223.083 -3.50399 3.51474 0
M  V30 2275 H 218.339 -3.62603 4.92269 0
M  V30 2276 H 222.513 -3.68658 5.90816 0
M  V30 2277 H 220.14 -3.74336 6.61647 0
M  V30 2278 N 221.715 -0.905404 -1.28997 0
M  V30 2279 C 222.645 -0.404212 -2.29975 0
M  V30 2280 C 223.626 0.523784 -1.61835 0
M  V30 2281 O 224.811 0.433298 -1.89304 0
M  V30 2282 C 221.941 0.364042 -3.45387 0
M  V30 2283 C 220.895 -0.474048 -4.25367 0
M  V30 2284 C 220.221 0.422045 -5.33032 0
M  V30 2285 C 221.521 -1.72696 -4.92923 0
M  V30 2286 H 223.215 -1.24807 -2.72146 0
M  V30 2287 H 220.761 -0.601585 -1.30832 0
M  V30 2288 H 222.714 0.725447 -4.15109 0
M  V30 2289 H 221.438 1.24174 -3.02074 0
M  V30 2290 H 220.097 -0.81786 -3.57361 0
M  V30 2291 H 219.745 1.29804 -4.85963 0
M  V30 2292 H 219.445 -0.135057 -5.87445 0
M  V30 2293 H 220.969 0.779517 -6.05604 0
M  V30 2294 H 222.383 -1.43495 -5.55051 0
M  V30 2295 H 220.78 -2.22582 -5.57295 0
M  V30 2296 H 221.85 -2.45964 -4.17887 0
M  V30 2297 N 223.193 1.4272 -0.668489 0
M  V30 2298 C 224.421 2.05966 -0.196348 0
M  V30 2299 C 224.836 1.50191 1.14403 0
M  V30 2300 O 224.193 0.639208 1.7094 0
M  V30 2301 C 224.244 3.61314 -0.115815 0
M  V30 2302 O 223.965 4.1502 -1.40322 0
M  V30 2303 C 225.466 4.41663 0.380579 0
M  V30 2304 H 222.686 0.663954 -0.0969829 0
M  V30 2305 H 225.23 1.82966 -0.913446 0
M  V30 2306 H 223.385 3.83448 0.551931 0
M  V30 2307 H 223.799 5.08832 -1.27243 0
M  V30 2308 H 225.273 5.5065 0.385848 0
M  V30 2309 H 225.75 4.15792 1.41471 0
M  V30 2310 H 226.356 4.24534 -0.255209 0
M  V30 2311 N 224.671 0.411399 1.52136 0
M  V30 2312 C 225.948 -0.222308 1.94333 0
M  V30 2313 C 226.328 -1.6242 1.34844 0
M  V30 2314 O 225.676 -2.22384 0.525145 0
M  V30 2315 C 225.886 -0.226345 3.48265 0
M  V30 2316 C 227.234 -0.444592 4.22266 0
M  V30 2317 O 228.258 -0.305602 3.54887 0
M  V30 2318 O 227.117 -0.718749 5.41753 0
M  V30 2319 H 224.211 -0.143907 0.814383 0
M  V30 2320 H 226.757 0.467506 1.63133 0
M  V30 2321 H 225.529 0.75475 3.83952 0
M  V30 2322 H 225.152 -0.960163 3.85832 0
M  V30 2323 N 226.149 -1.5696 0.141893 0
M  V30 2324 C 227.059 -2.20066 -0.812905 0
M  V30 2325 C 228.075 -1.18344 -1.27557 0
M  V30 2326 O 229.251 -1.50902 -1.33381 0
M  V30 2327 C 226.316 -2.80583 -2.03652 0
M  V30 2328 C 225.377 -3.97414 -1.62359 0
M  V30 2329 C 224.61 -4.55036 -2.78887 0
M  V30 2330 O 224.833 -4.11538 -3.94959 0
M  V30 2331 O 223.767 -5.45376 -2.54653 0
M  V30 2332 H 227.593 -3.02157 -0.305746 0
M  V30 2333 H 225.178 -1.49159 -0.0848799 0
M  V30 2334 H 227.06 -3.19067 -2.75272 0
M  V30 2335 H 225.735 -2.01508 -2.5333 0
M  V30 2336 H 224.642 -3.63656 -0.877775 0
M  V30 2337 H 225.975 -4.77994 -1.17401 0
M  V30 2338 N 227.627 0.131896 -1.57047 0
M  V30 2339 C 228.537 1.1815 -2.02676 0
M  V30 2340 C 229.553 1.46113 -0.944824 0
M  V30 2341 O 230.729 1.57485 -1.25541 0
M  V30 2342 C 227.794 2.49139 -2.41103 0
M  V30 2343 C 226.855 2.28688 -3.63318 0
M  V30 2344 C 226.088 3.53431 -3.99903 0
M  V30 2345 O 226.311 4.60223 -3.36973 0
M  V30 2346 O 225.245 3.45198 -4.93074 0
M  V30 2347 H 229.071 0.824069 -2.92306 0
M  V30 2348 H 226.656 0.341745 -1.45439 0
M  V30 2349 H 228.538 3.26338 -2.66611 0
M  V30 2350 H 227.213 2.84382 -1.54624 0
M  V30 2351 H 226.12 1.4939 -3.42977 0
M  V30 2352 H 227.453 1.98355 -4.50462 0
M  V30 2353 N 229.106 1.52395 0.401703 0
M  V30 2354 C 230.346 1.68498 1.15705 0
M  V30 2355 C 230.71 0.409748 1.87577 0
M  V30 2356 O 231.911 0.446983 2.65058 0
M  V30 2357 C 230.182 2.87789 2.11924 0
M  V30 2358 S 231.741 3.24415 2.95466 0
M  V30 2359 H 228.559 0.593267 0.391862 0
M  V30 2360 H 231.161 1.90408 0.443282 0
M  V30 2361 H 229.865 3.7884 1.57824 0
M  V30 2362 H 229.396 2.68175 2.87829 0
M  V30 2363 H 231.411 2.73614 4.13944 0
M  V30 2364 N 230.584 -0.659388 1.43143 0
M  V30 2365 C 232 -0.974337 1.26407 0
M  V30 2366 C 232.2 -2.007 0.179341 0
M  V30 2367 O 231.256 -2.4856 -0.444295 0
M  V30 2368 C 232.569 -1.46447 2.62628 0
M  V30 2369 C 234.117 -1.58144 2.7011 0
M  V30 2370 C 234.592 -2.1055 4.06734 0
M  V30 2371 N 236.083 -2.17861 4.08767 0
M  V30 2372 C 236.818 -2.59519 5.1131 0
M  V30 2373 N 236.314 -3.00518 6.24228 0
M  V30 2374 N 238.107 -2.59404 4.98664 0
M  V30 2375 H 230.258 0.0240528 2.12386 0
M  V30 2376 H 232.521 -0.0518065 0.946583 0
M  V30 2377 H 232.227 -0.780123 3.42939 0
M  V30 2378 H 232.101 -2.44058 2.87603 0
M  V30 2379 H 234.488 -2.25682 1.90136 0
M  V30 2380 H 234.569 -0.589828 2.48907 0
M  V30 2381 H 234.213 -1.43616 4.87172 0
M  V30 2382 H 234.143 -3.10531 4.25298 0
M  V30 2383 H 236.634 -1.88975 3.27257 0
M  V30 2384 H 236.947 -3.31036 6.98309 0
M  V30 2385 H 235.292 -2.98337 6.2771 0
M  V30 2386 H 238.483 -2.26747 4.09516 0
M  V30 2387 H 238.656 -2.91548 5.78709 0
M  V30 2388 N 232.062 -1.29571 -0.897171 0
M  V30 2389 C 232.992 -1.17473 -2.01798 0
M  V30 2390 C 233.973 -0.068323 -1.69963 0
M  V30 2391 O 235.158 -0.248239 -1.92607 0
M  V30 2392 C 232.288 -0.853099 -3.36659 0
M  V30 2393 C 231.242 -1.9161 -3.82713 0
M  V30 2394 C 230.568 -1.44773 -5.14728 0
M  V30 2395 C 231.868 -3.32535 -4.02763 0
M  V30 2396 H 233.562 -2.11237 -2.12177 0
M  V30 2397 H 231.108 -1.01699 -1.01948 0
M  V30 2398 H 233.061 -0.755165 -4.14578 0
M  V30 2399 H 231.785 0.120236 -3.26379 0
M  V30 2400 H 230.444 -2.00346 -3.07013 0
M  V30 2401 H 230.092 -0.462995 -5.00865 0
M  V30 2402 H 229.792 -2.15865 -5.46513 0
M  V30 2403 H 231.316 -1.36334 -5.95185 0
M  V30 2404 H 232.73 -3.26626 -4.71156 0
M  V30 2405 H 231.127 -4.01607 -4.45905 0
M  V30 2406 H 232.197 -3.75326 -3.07016 0
M  V30 2407 N 233.54 1.10788 -1.12088 0
M  V30 2408 C 234.789 1.82036 -0.868659 0
M  V30 2409 C 235.102 1.85929 0.607426 0
M  V30 2410 O 236.308 2.53346 0.97613 0
M  V30 2411 C 234.764 3.26951 -1.50435 0
M  V30 2412 C 234.372 3.31367 -3.01496 0
M  V30 2413 C 236.116 4.03053 -1.33225 0
M  V30 2414 C 234.023 4.7072 -3.58017 0
M  V30 2415 H 232.953 0.682108 -0.321318 0
M  V30 2416 H 235.604 1.24618 -1.34694 0
M  V30 2417 H 233.986 3.84343 -0.953735 0
M  V30 2418 H 235.16 2.83819 -3.6302 0
M  V30 2419 H 233.475 2.6875 -3.18061 0
M  V30 2420 H 236.072 5.05981 -1.72878 0
M  V30 2421 H 236.415 4.15387 -0.275529 0
M  V30 2422 H 236.948 3.52066 -1.85188 0
M  V30 2423 H 233.687 4.63585 -4.63432 0
M  V30 2424 H 233.207 5.1865 -3.01268 0
M  V30 2425 H 234.886 5.39685 -3.56859 0
M  V30 2426 N 235.018 0.912232 1.28515 0
M  V30 2427 C 236.267 0.540504 1.94323 0
M  V30 2428 C 236.58 -0.920044 1.72611 0
M  V30 2429 O 237.786 -1.39986 2.32629 0
M  V30 2430 C 236.242 0.915803 3.48053 0
M  V30 2431 C 235.85 2.39598 3.78546 0
M  V30 2432 C 237.594 0.614588 4.20027 0
M  V30 2433 C 235.501 2.71148 5.25578 0
M  V30 2434 H 234.431 0.198418 0.727424 0
M  V30 2435 H 237.082 1.11094 1.46049 0
M  V30 2436 H 235.464 0.274168 3.9505 0
M  V30 2437 H 236.638 3.08422 3.42364 0
M  V30 2438 H 234.953 2.66749 3.1974 0
M  V30 2439 H 237.55 0.827002 5.28266 0
M  V30 2440 H 237.893 -0.447531 4.13887 0
M  V30 2441 H 238.426 1.21462 3.78803 0
M  V30 2442 H 235.165 3.76207 5.36794 0
M  V30 2443 H 234.685 2.0696 5.62963 0
M  V30 2444 H 236.364 2.58072 5.93302 0
M  V30 2445 N 236.496 -1.42363 0.676048 0
M  V30 2446 C 237.446 -2.27987 -0.0242903 0
M  V30 2447 C 238.43 -1.41153 -0.772319 0
M  V30 2448 O 239.622 -1.64592 -0.651025 0
M  V30 2449 C 236.751 -3.29195 -0.973953 0
M  V30 2450 C 235.837 -4.23512 -0.223202 0
M  V30 2451 N 236.228 -4.99865 0.772589 0
M  V30 2452 C 234.526 -4.43606 -0.461469 0
M  V30 2453 C 235.227 -5.68757 1.22027 0
M  V30 2454 N 234.203 -5.40811 0.549975 0
M  V30 2455 H 238.005 -2.84445 0.73949 0
M  V30 2456 H 235.519 -1.54341 0.50522 0
M  V30 2457 H 237.516 -3.89339 -1.49067 0
M  V30 2458 H 236.176 -2.74298 -1.73755 0
M  V30 2459 H 237.187 -5.04921 1.15217 0
M  V30 2460 H 233.864 -3.99749 -1.20446 0
M  V30 2461 H 235.254 -6.40007 2.0455 0
M  V30 2462 N 237.974 -0.419461 -1.51915 0
M  V30 2463 C 238.904 0.391813 -2.30189 0
M  V30 2464 C 239.885 1.03699 -1.34836 0
M  V30 2465 O 241.07 1.04403 -1.63748 0
M  V30 2466 C 238.2 1.50312 -3.13087 0
M  V30 2467 C 237.154 0.9824 -4.16573 0
M  V30 2468 C 236.48 2.18809 -4.8788 0
M  V30 2469 C 237.78 0.0292356 -5.22292 0
M  V30 2470 H 239.474 -0.26135 -2.98257 0
M  V30 2471 H 237.02 -0.127134 -1.43438 0
M  V30 2472 H 238.973 2.07773 -3.66617 0
M  V30 2473 H 237.697 2.18431 -2.42807 0
M  V30 2474 H 236.356 0.430119 -3.64068 0
M  V30 2475 H 236.004 2.85507 -4.14119 0
M  V30 2476 H 235.704 1.84615 -5.57845 0
M  V30 2477 H 237.228 2.76858 -5.44226 0
M  V30 2478 H 238.642 0.512976 -5.71 0
M  V30 2479 H 237.039 -0.2244 -5.9968 0
M  V30 2480 H 238.109 -0.912931 -4.76228 0
M  V30 2481 N 239.452 1.56882 -0.150215 0
M  V30 2482 C 240.415 2.1573 0.774157 0
M  V30 2483 C 241.415 1.0999 1.17298 0
M  V30 2484 O 242.605 1.35613 1.09338 0
M  V30 2485 C 239.737 2.72302 2.05096 0
M  V30 2486 H 240.93 2.98752 0.262201 0
M  V30 2487 H 238.483 1.55985 0.099248 0
M  V30 2488 H 239.218 1.92956 2.6065 0
M  V30 2489 H 239.003 3.49665 1.77416 0
M  V30 2490 H 240.493 3.17632 2.71109 0
M  V30 2491 N 240.93 -0.123565 1.57115 0
M  V30 2492 C 241.862 -1.17739 1.96648 0
M  V30 2493 C 242.875 -1.37906 0.865201 0
M  V30 2494 O 244.064 -1.37062 1.14351 0
M  V30 2495 C 241.164 -2.53821 2.24562 0
M  V30 2496 C 240.337 -2.54317 3.55867 0
M  V30 2497 C 239.396 -3.72112 3.72047 0
M  V30 2498 O 238.422 -3.55907 4.44206 0
M  V30 2499 N 239.624 -4.90498 3.10471 0
M  V30 2500 H 242.389 -0.841147 2.87654 0
M  V30 2501 H 239.95 -0.31289 1.58848 0
M  V30 2502 H 241.942 -3.31175 2.32606 0
M  V30 2503 H 240.512 -2.79645 1.39705 0
M  V30 2504 H 239.732 -1.62711 3.59053 0
M  V30 2505 H 241.02 -2.51701 4.42181 0
M  V30 2506 H 240.418 -5.06567 2.51806 0
M  V30 2507 H 238.975 -5.65544 3.24043 0
M  V30 2508 N 242.408 -1.52605 -0.393616 0
M  V30 2509 C 243.341 -1.71798 -1.50202 0
M  V30 2510 C 244.319 -0.565743 -1.52441 0
M  V30 2511 O 245.503 -0.794987 -1.70916 0
M  V30 2512 C 242.63 -1.7714 -2.88685 0
M  V30 2513 C 241.676 -2.98845 -3.04292 0
M  V30 2514 S 242.509 -4.58909 -2.75976 0
M  V30 2515 C 243.665 -4.6706 -4.1666 0
M  V30 2516 H 243.898 -2.65542 -1.33696 0
M  V30 2517 H 241.431 -1.42839 -0.586195 0
M  V30 2518 H 243.389 -1.80903 -3.68489 0
M  V30 2519 H 242.05 -0.844969 -3.02521 0
M  V30 2520 H 241.243 -2.99111 -4.05646 0
M  V30 2521 H 240.845 -2.9305 -2.32374 0
M  V30 2522 H 243.137 -4.45391 -5.10523 0
M  V30 2523 H 244.08 -5.6905 -4.21412 0
M  V30 2524 H 244.488 -3.95944 -4.02354 0
M  V30 2525 N 243.887 0.651787 -1.4349 0
M  V30 2526 C 244.834 1.76462 -1.4876 0
M  V30 2527 C 245.804 1.62641 -0.337189 0
M  V30 2528 O 246.989 1.82864 -0.544544 0
M  V30 2529 C 244.129 3.14623 -1.41796 0
M  V30 2530 C 243.242 3.39568 -2.67053 0
M  V30 2531 C 242.377 4.67585 -2.52068 0
M  V30 2532 C 241.416 4.85639 -3.72587 0
M  V30 2533 N 240.553 6.04915 -3.56402 0
M  V30 2534 H 245.393 1.71293 -2.43849 0
M  V30 2535 H 242.93 0.835889 -1.21043 0
M  V30 2536 H 244.888 3.94496 -1.35753 0
M  V30 2537 H 243.518 3.18859 -0.50288 0
M  V30 2538 H 242.57 2.53783 -2.8337 0
M  V30 2539 H 243.882 3.48795 -3.56572 0
M  V30 2540 H 243.036 5.55586 -2.4374 0
M  V30 2541 H 241.775 4.60681 -1.60075 0
M  V30 2542 H 240.78 3.96073 -3.81321 0
M  V30 2543 H 242.005 4.94372 -4.65589 0
M  V30 2544 H 239.951 5.9914 -2.67146 0
M  V30 2545 H 239.868 6.15106 -4.39524 0
M  V30 2546 H 241.136 6.95533 -3.51929 0
M  V30 2547 N 245.365 1.30045 0.890287 0
M  V30 2548 C 246.613 1.18327 1.63839 0
M  V30 2549 C 246.934 -0.263455 1.93212 0
M  V30 2550 O 246.204 -1.17856 1.56482 0
M  V30 2551 H 244.784 0.434933 0.607324 0
M  V30 2552 H 247.446 1.631 1.06698 0
M  V30 2553 H 246.542 1.74024 2.59079 0
M  V30 2554 N 246.843 -1.10192 1.12674 0
M  V30 2555 C 247.773 -2.18652 0.819362 0
M  V30 2556 C 248.754 -1.68698 -0.217915 0
M  V30 2557 O 249.939 -1.94041 -0.0785581 0
M  V30 2558 C 247.069 -3.46202 0.27594 0
M  V30 2559 C 246.023 -4.09444 1.24656 0
M  V30 2560 C 245.349 -5.31725 0.563258 0
M  V30 2561 C 246.649 -4.52863 2.60217 0
M  V30 2562 H 248.343 -2.44622 1.72628 0
M  V30 2563 H 245.889 -1.17571 0.831451 0
M  V30 2564 H 247.842 -4.21372 0.0486149 0
M  V30 2565 H 246.566 -3.1973 -0.666331 0
M  V30 2566 H 245.225 -3.36284 1.45974 0
M  V30 2567 H 244.873 -5.0153 -0.384235 0
M  V30 2568 H 244.573 -5.74991 1.21075 0
M  V30 2569 H 246.097 -6.09624 0.34503 0
M  V30 2570 H 247.511 -5.19294 2.42913 0
M  V30 2571 H 245.908 -5.06986 3.21068 0
M  V30 2572 H 246.978 -3.65656 3.18471 0
M  V30 2573 N 248.321 -0.919034 -1.28029 0
M  V30 2574 C 249.253 -0.368762 -2.26214 0
M  V30 2575 C 250.266 0.495716 -1.55069 0
M  V30 2576 O 251.455 0.30974 -1.75792 0
M  V30 2577 C 248.555 0.491049 -3.35324 0
M  V30 2578 C 247.728 -0.352133 -4.3598 0
M  V30 2579 C 246.787 0.443622 -5.24327 0
M  V30 2580 O 245.813 -0.14566 -5.69014 0
M  V30 2581 N 247.015 1.74545 -5.53637 0
M  V30 2582 H 249.78 -1.21273 -2.74068 0
M  V30 2583 H 247.341 -0.785541 -1.41566 0
M  V30 2584 H 249.333 1.03026 -3.91366 0
M  V30 2585 H 247.903 1.23574 -2.87138 0
M  V30 2586 H 247.123 -1.07269 -3.79324 0
M  V30 2587 H 248.411 -0.928883 -5.00249 0
M  V30 2588 H 247.809 2.24666 -5.19174 0
M  V30 2589 H 246.366 2.23138 -6.12416 0
M  V30 2590 N 249.799 1.42003 -0.683588 0
M  V30 2591 C 251.215 1.55625 -0.353976 0
M  V30 2592 C 251.415 1.66151 1.14 0
M  V30 2593 O 250.471 1.63329 1.92561 0
M  V30 2594 C 251.784 2.80171 -1.092 0
M  V30 2595 C 253.332 2.93954 -1.07518 0
M  V30 2596 C 253.807 4.21372 -1.79471 0
M  V30 2597 N 255.298 4.28303 -1.76381 0
M  V30 2598 C 256.033 5.25729 -2.28904 0
M  V30 2599 N 255.529 6.29254 -2.89846 0
M  V30 2600 N 257.322 5.17586 -2.19228 0
M  V30 2601 H 249.473 1.33415 -1.6527 0
M  V30 2602 H 251.736 0.64282 -0.696769 0
M  V30 2603 H 251.442 2.78561 -2.14701 0
M  V30 2604 H 251.316 3.7133 -0.662862 0
M  V30 2605 H 253.703 2.95086 -0.028475 0
M  V30 2606 H 253.784 2.04002 -1.54328 0
M  V30 2607 H 253.428 4.21001 -2.84114 0
M  V30 2608 H 253.358 5.10275 -1.30104 0
M  V30 2609 H 255.849 3.54119 -1.31939 0
M  V30 2610 H 256.162 6.99964 -3.27522 0
M  V30 2611 H 254.507 6.29791 -2.93919 0
M  V30 2612 H 257.698 4.35631 -1.71299 0
M  V30 2613 H 257.871 5.93348 -2.60466 0
M  V30 2614 N 251.277 0.427512 1.51691 0
M  V30 2615 C 252.502 -0.143601 2.06902 0
M  V30 2616 C 252.927 -1.36536 1.29382 0
M  V30 2617 O 252.285 -1.78289 0.329043 0
M  V30 2618 C 252.333 -0.454207 3.57728 0
M  V30 2619 O 251.437 -1.54228 3.82475 0
M  V30 2620 H 250.778 -0.00617128 0.663971 0
M  V30 2621 H 253.308 0.606014 1.95419 0
M  V30 2622 H 253.318 -0.707525 4.01818 0
M  V30 2623 H 251.993 0.438812 4.13579 0
M  V30 2624 H 250.57 -1.2797 3.50254 0
M  V30 2625 N 252.755 -1.56801 0.158532 0
M  V30 2626 C 253.687 -2.14488 -0.807923 0
M  V30 2627 C 254.7 -1.09721 -1.20271 0
M  V30 2628 O 255.889 -1.36956 -1.14478 0
M  V30 2629 C 252.989 -2.66217 -2.09718 0
M  V30 2630 C 252.162 -3.95507 -1.86796 0
M  V30 2631 C 251.221 -4.3243 -2.99818 0
M  V30 2632 O 250.247 -5.00543 -2.71008 0
M  V30 2633 N 251.449 -3.92947 -4.27285 0
M  V30 2634 H 254.214 -2.98042 -0.314816 0
M  V30 2635 H 251.775 -1.61881 -0.0246692 0
M  V30 2636 H 253.767 -2.87924 -2.84398 0
M  V30 2637 H 252.337 -1.87324 -2.50257 0
M  V30 2638 H 251.557 -3.82309 -0.96089 0
M  V30 2639 H 252.845 -4.79972 -1.68833 0
M  V30 2640 H 252.243 -3.38087 -4.53557 0
M  V30 2641 H 250.8 -4.19681 -4.9871 0
M  V30 2642 N 254.233 0.115231 -1.57178 0
M  V30 2643 C 255.482 0.820945 -1.84237 0
M  V30 2644 C 255.795 1.80866 -0.744761 0
M  V30 2645 O 257.001 2.56083 -0.901871 0
M  V30 2646 C 255.457 1.51072 -3.26658 0
M  V30 2647 C 255.065 0.563795 -4.44438 0
M  V30 2648 C 256.809 2.20134 -3.62962 0
M  V30 2649 C 254.716 1.25701 -5.77887 0
M  V30 2650 H 253.646 0.310328 -0.687177 0
M  V30 2651 H 256.297 0.0737134 -1.83352 0
M  V30 2652 H 254.679 2.30471 -3.22024 0
M  V30 2653 H 255.853 -0.197247 -4.60378 0
M  V30 2654 H 254.168 -0.0200638 -4.16395 0
M  V30 2655 H 256.765 2.72696 -4.59936 0
M  V30 2656 H 257.108 2.98107 -2.90582 0
M  V30 2657 H 257.641 1.47619 -3.69396 0
M  V30 2658 H 254.38 0.518493 -6.53446 0
M  V30 2659 H 253.9 1.98997 -5.65827 0
M  V30 2660 H 255.579 1.78915 -6.2177 0
M  V30 2661 N 255.711 1.52812 0.385517 0
M  V30 2662 C 256.641 1.80808 1.47752 0
M  V30 2663 C 257.622 0.660318 1.5676 0
M  V30 2664 O 258.807 0.908246 1.71652 0
M  V30 2665 C 255.937 1.98008 2.85324 0
M  V30 2666 C 254.891 3.13709 2.91154 0
M  V30 2667 C 254.217 3.16169 4.31209 0
M  V30 2668 C 255.517 4.52709 2.60483 0
M  V30 2669 H 257.211 2.72253 1.24573 0
M  V30 2670 H 254.757 1.31003 0.597839 0
M  V30 2671 H 256.71 2.16176 3.61726 0
M  V30 2672 H 255.434 1.03255 3.09848 0
M  V30 2673 H 254.093 2.95329 2.17201 0
M  V30 2674 H 253.741 2.19092 4.52778 0
M  V30 2675 H 253.441 3.93894 4.36029 0
M  V30 2676 H 254.965 3.36496 5.09512 0
M  V30 2677 H 256.379 4.71173 3.26602 0
M  V30 2678 H 254.776 5.32528 2.76648 0
M  V30 2679 H 255.846 4.59186 1.55809 0
M  V30 2680 N 257.189 -0.644168 1.43834 0
M  V30 2681 C 258.6 -1.22554 1.40845 0
M  V30 2682 C 258.951 -1.9585 0.117115 0
M  V30 2683 O 258.076 -2.01734 -0.783086 0
M  V30 2684 C 258.671 -2.22907 2.55143 0
M  V30 2685 C 257.23 -2.76501 2.5539 0
M  V30 2686 C 256.377 -1.51287 2.32396 0
M  V30 2687 H 259.328 -0.43563 1.52604 0
M  V30 2688 H 259.349 -3.05259 2.2715 0
M  V30 2689 H 258.861 -1.69533 3.49114 0
M  V30 2690 H 256.962 -3.33914 1.65324 0
M  V30 2691 H 257.075 -3.23429 3.53455 0
M  V30 2692 H 255.439 -1.78957 1.81236 0
M  V30 2693 H 256.222 -0.998336 3.28463 0
M  V30 2694 N 258.668 -1.30515 -0.883378 0
M  V30 2695 C 259.896 -1.22359 -1.66841 0
M  V30 2696 C 260.311 0.213296 -1.87591 0
M  V30 2697 O 259.668 1.14075 -1.42454 0
M  V30 2698 C 259.719 -1.95011 -3.04389 0
M  V30 2699 O 259.44 -3.3309 -2.84575 0
M  V30 2700 C 260.941 -1.93532 -3.98824 0
M  V30 2701 H 258.161 -0.423371 -0.520575 0
M  V30 2702 H 260.705 -1.72167 -1.10357 0
M  V30 2703 H 258.86 -1.48997 -3.57601 0
M  V30 2704 H 259.274 -3.69907 -3.71846 0
M  V30 2705 H 260.748 -2.48902 -4.92699 0
M  V30 2706 H 261.225 -0.914627 -4.29571 0
M  V30 2707 H 261.831 -2.39364 -3.51547 0
M  V30 2708 N 260.146 1.09593 -1.13257 0
M  V30 2709 C 261.056 2.19739 -0.821691 0
M  V30 2710 C 262.072 1.72926 0.19302 0
M  V30 2711 O 263.248 2.01385 0.0244895 0
M  V30 2712 C 260.313 3.45482 -0.290333 0
M  V30 2713 C 259.374 4.06985 -1.36607 0
M  V30 2714 C 258.607 5.26726 -0.859975 0
M  V30 2715 O 258.83 5.69594 0.303082 0
M  V30 2716 O 257.764 5.7931 -1.63351 0
M  V30 2717 H 261.59 2.48781 -1.74189 0
M  V30 2718 H 259.175 1.18496 -0.909894 0
M  V30 2719 H 261.057 4.214 0.000674022 0
M  V30 2720 H 259.732 3.18047 0.602306 0
M  V30 2721 H 258.639 3.32712 -1.71037 0
M  V30 2722 H 259.972 4.38643 -2.23279 0
M  V30 2723 N 261.624 0.925811 1.2754 0
M  V30 2724 C 262.534 0.428993 2.30644 0
M  V30 2725 C 263.55 -0.489387 1.66976 0
M  V30 2726 O 264.726 -0.372653 1.97922 0
M  V30 2727 C 261.791 -0.311967 3.45294 0
M  V30 2728 C 260.852 0.641098 4.24486 0
M  V30 2729 C 260.085 -0.0645955 5.33661 0
M  V30 2730 O 260.308 -1.28429 5.55754 0
M  V30 2731 O 259.242 0.606265 5.98839 0
M  V30 2732 H 263.068 1.28504 2.75173 0
M  V30 2733 H 260.653 0.691086 1.32455 0
M  V30 2734 H 262.535 -0.729972 4.15029 0
M  V30 2735 H 261.21 -1.14365 3.02824 0
M  V30 2736 H 260.117 1.10874 3.57292 0
M  V30 2737 H 261.45 1.43995 4.70666 0
M  V30 2738 N 263.102 -1.41638 0.69111 0
M  V30 2739 C 264.332 -2.0533 0.228758 0
M  V30 2740 C 264.74 -1.52089 -1.12541 0
M  V30 2741 O 264.083 -0.662145 -1.71351 0
M  V30 2742 C 264.145 -3.59349 0.10407 0
M  V30 2743 C 263.809 -4.35362 1.38956 0
M  V30 2744 C 264.806 -4.64942 2.32648 0
M  V30 2745 C 262.491 -4.74714 1.64169 0
M  V30 2746 C 264.485 -5.32828 3.49818 0
M  V30 2747 C 262.172 -5.42338 2.81625 0
M  V30 2748 C 263.17 -5.71322 3.74273 0
M  V30 2749 O 262.858 -6.37554 4.89673 0
M  V30 2750 H 262.59 -0.667796 0.104997 0
M  V30 2751 H 265.144 -1.82477 0.942938 0
M  V30 2752 H 263.374 -3.80924 -0.665839 0
M  V30 2753 H 265.063 -4.04633 -0.320519 0
M  V30 2754 H 265.829 -4.35025 2.14425 0
M  V30 2755 H 261.708 -4.51538 0.929202 0
M  V30 2756 H 265.252 -5.55368 4.22152 0
M  V30 2757 H 261.149 -5.71673 2.99768 0
M  V30 2758 H 261.917 -6.56049 4.8943 0
M  V30 2759 N 264.58 -0.43555 -1.51462 0
M  V30 2760 C 265.49 0.383001 -2.31453 0
M  V30 2761 C 266.506 1.02931 -1.4029 0
M  V30 2762 O 267.682 1.02507 -1.73362 0
M  V30 2763 C 264.747 1.47043 -3.13973 0
M  V30 2764 C 263.808 0.844433 -4.20913 0
M  V30 2765 C 263.041 1.88004 -4.9949 0
M  V30 2766 O 263.264 3.10199 -4.78678 0
M  V30 2767 O 262.198 1.47157 -5.83634 0
M  V30 2768 H 266.024 -0.269964 -3.02498 0
M  V30 2769 H 263.609 -0.19813 -1.4808 0
M  V30 2770 H 265.491 2.10113 -3.65281 0
M  V30 2771 H 264.166 2.10751 -2.45695 0
M  V30 2772 H 263.073 0.175729 -3.73687 0
M  V30 2773 H 264.406 0.250869 -4.9156 0
M  V30 2774 N 266.058 1.56714 -0.166846 0
M  V30 2775 C 266.968 2.21331 0.777791 0
M  V30 2776 C 267.984 1.20358 1.25658 0
M  V30 2777 O 269.16 1.53005 1.30964 0
M  V30 2778 C 266.225 2.83787 1.99163 0
M  V30 2779 C 265.286 3.99947 1.56016 0
M  V30 2780 C 264.519 4.59415 2.71613 0
M  V30 2781 O 264.742 4.17769 3.88362 0
M  V30 2782 O 263.676 5.49359 2.45945 0
M  V30 2783 H 267.502 3.02605 0.257636 0
M  V30 2784 H 265.087 1.49275 0.0611393 0
M  V30 2785 H 266.969 3.23405 2.70161 0
M  V30 2786 H 265.644 2.05513 2.50092 0
M  V30 2787 H 264.551 3.65007 0.819809 0
M  V30 2788 H 265.884 4.79801 1.09782 0
M  V30 2789 N 267.536 -0.106894 1.57237 0
M  V30 2790 C 268.499 -1.11466 2.0027 0
M  V30 2791 C 269.499 -1.33623 0.894519 0
M  V30 2792 O 270.689 -1.29935 1.16028 0
M  V30 2793 C 267.821 -2.46646 2.35327 0
M  V30 2794 H 269.014 -0.744516 2.90512 0
M  V30 2795 H 266.567 -0.351576 1.52295 0
M  V30 2796 H 267.302 -2.88558 1.48003 0
M  V30 2797 H 267.087 -2.31915 3.16161 0
M  V30 2798 H 268.577 -3.19151 2.69318 0
M  V30 2799 N 269.014 -1.53014 -0.377408 0
M  V30 2800 C 269.947 -1.73382 -1.48371 0
M  V30 2801 C 270.925 -0.581879 -1.51832 0
M  V30 2802 O 272.109 -0.81307 -1.70063 0
M  V30 2803 C 269.236 -1.80192 -2.8679 0
M  V30 2804 C 268.282 -3.02056 -3.01105 0
M  V30 2805 S 269.115 -4.61811 -2.71093 0
M  V30 2806 C 270.271 -4.71453 -4.11683 0
M  V30 2807 H 270.504 -2.66946 -1.30872 0
M  V30 2808 H 268.037 -1.43453 -0.571012 0
M  V30 2809 H 269.995 -1.84802 -3.6655 0
M  V30 2810 H 268.656 -0.877008 -3.01608 0
M  V30 2811 H 267.849 -3.03396 -4.02451 0
M  V30 2812 H 267.451 -2.95498 -2.29253 0
M  V30 2813 H 269.743 -4.50781 -5.0577 0
M  V30 2814 H 270.686 -5.73487 -4.15353 0
M  V30 2815 H 271.094 -4.00189 -3.98132 0
M  V30 2816 N 270.492 0.636531 -1.44174 0
M  V30 2817 C 271.717 1.42847 -1.50364 0
M  V30 2818 C 272.142 1.87665 -0.127867 0
M  V30 2819 O 271.5 1.58408 0.88185 0
M  V30 2820 C 271.548 2.62854 -2.4686 0
M  V30 2821 O 270.652 3.62501 -1.9664 0
M  V30 2822 H 269.993 0.427642 -0.507955 0
M  V30 2823 H 272.523 0.777422 -1.89255 0
M  V30 2824 H 272.533 3.10465 -2.64718 0
M  V30 2825 H 271.208 2.29578 -3.46795 0
M  V30 2826 H 269.785 3.21735 -1.88523 0
M  V30 2827 N 271.97 1.30982 0.876444 0
M  V30 2828 C 273.198 1.23242 1.6619 0
M  V30 2829 C 273.613 -0.203345 1.87702 0
M  V30 2830 O 272.97 -1.13317 1.43057 0
M  V30 2831 C 273.021 1.96623 3.03351 0
M  V30 2832 O 272.742 3.34594 2.82804 0
M  V30 2833 C 274.243 1.95644 3.97792 0
M  V30 2834 H 271.463 0.426126 0.518322 0
M  V30 2835 H 274.007 1.7275 1.09442 0
M  V30 2836 H 272.162 1.50892 3.56806 0
M  V30 2837 H 272.576 3.71873 3.69879 0
M  V30 2838 H 274.05 2.51511 4.91372 0
M  V30 2839 H 274.527 0.937395 4.2908 0
M  V30 2840 H 275.133 2.41225 3.50272 0
M  V30 2841 N 273.449 -1.08991 1.13837 0
M  V30 2842 C 274.382 -2.15049 0.763477 0
M  V30 2843 C 275.36 -1.60629 -0.252398 0
M  V30 2844 O 276.544 -1.87958 -0.142853 0
M  V30 2845 C 273.671 -3.38441 0.132545 0
M  V30 2846 C 272.717 -4.11596 1.11763 0
M  V30 2847 S 273.55 -4.6521 2.65216 0
M  V30 2848 C 274.706 -5.91896 2.03495 0
M  V30 2849 H 274.939 -2.46518 1.66182 0
M  V30 2850 H 272.472 -1.21008 0.958976 0
M  V30 2851 H 274.43 -4.09883 -0.225074 0
M  V30 2852 H 273.091 -3.05182 -0.743135 0
M  V30 2853 H 272.284 -5.00121 0.624076 0
M  V30 2854 H 271.886 -3.46038 1.41894 0
M  V30 2855 H 274.178 -6.63156 1.38675 0
M  V30 2856 H 275.121 -6.45938 2.9012 0
M  V30 2857 H 275.529 -5.44625 1.48471 0
M  V30 2858 N 274.927 -0.932562 -1.27047 0
M  V30 2859 C 275.859 -0.392734 -2.2581 0
M  V30 2860 C 276.872 0.479241 -1.55586 0
M  V30 2861 O 278.061 0.291078 -1.76111 0
M  V30 2862 C 275.161 0.455456 -3.35826 0
M  V30 2863 C 274.334 -0.398355 -4.35582 0
M  V30 2864 C 273.393 0.387985 -5.24768 0
M  V30 2865 O 272.419 -0.206003 -5.68827 0
M  V30 2866 N 273.621 1.68664 -5.55457 0
M  V30 2867 H 276.386 -1.24173 -2.72766 0
M  V30 2868 H 273.947 -0.800511 -1.40725 0
M  V30 2869 H 275.939 0.988692 -3.92437 0
M  V30 2870 H 274.509 1.20522 -2.88432 0
M  V30 2871 H 273.729 -1.11286 -3.78165 0
M  V30 2872 H 275.017 -0.981889 -4.99236 0
M  V30 2873 H 274.415 2.19147 -5.21528 0
M  V30 2874 H 272.972 2.1663 -6.14748 0
M  V30 2875 N 276.405 1.4127 -0.698611 0
M  V30 2876 C 277.651 2.01478 -0.231207 0
M  V30 2877 C 277.984 1.55215 1.16713 0
M  V30 2878 O 277.259 0.764672 1.78838 0
M  V30 2879 C 277.542 3.58912 -0.292281 0
M  V30 2880 C 277.395 4.15293 -1.72778 0
M  V30 2881 C 278.714 4.38736 0.346194 0
M  V30 2882 H 275.833 0.732025 -0.0854878 0
M  V30 2883 H 278.475 1.67977 -0.887906 0
M  V30 2884 H 276.625 3.87582 0.26686 0
M  V30 2885 H 278.297 3.97486 -2.341 0
M  V30 2886 H 276.54 3.7022 -2.26096 0
M  V30 2887 H 277.211 5.24452 -1.72202 0
M  V30 2888 H 279.687 4.15897 -0.130035 0
M  V30 2889 H 278.563 5.48221 0.272932 0
M  V30 2890 H 278.824 4.18425 1.42734 0
M  V30 2891 N 277.883 0.443576 1.51229 0
M  V30 2892 C 279.108 -0.121648 2.07043 0
M  V30 2893 C 279.533 -1.35156 1.30823 0
M  V30 2894 O 278.891 -1.7793 0.347934 0
M  V30 2895 C 278.939 -0.41624 3.5819 0
M  V30 2896 O 278.043 -1.50163 3.8409 0
M  V30 2897 H 277.384 0.000871367 0.663999 0
M  V30 2898 H 279.914 0.626706 1.94765 0
M  V30 2899 H 279.924 -0.664867 4.02546 0
M  V30 2900 H 278.599 0.482653 4.1309 0
M  V30 2901 H 277.176 -1.24248 3.51592 0
M  V30 2902 N 279.361 -1.56624 0.175154 0
M  V30 2903 C 280.293 -2.15333 -0.785128 0
M  V30 2904 C 281.306 -1.1099 -1.19101 0
M  V30 2905 O 282.495 -1.38162 -1.13019 0
M  V30 2906 C 279.595 -2.68427 -2.06882 0
M  V30 2907 C 278.768 -3.97466 -1.8259 0
M  V30 2908 C 277.827 -4.35585 -2.95215 0
M  V30 2909 O 276.853 -5.03389 -2.65684 0
M  V30 2910 N 278.055 -3.97457 -4.23094 0
M  V30 2911 H 280.82 -2.98359 -0.283187 0
M  V30 2912 H 278.381 -1.61898 -0.00749817 0
M  V30 2913 H 280.373 -2.90924 -2.81328 0
M  V30 2914 H 278.943 -1.89968 -2.48256 0
M  V30 2915 H 278.163 -3.83307 -0.920287 0
M  V30 2916 H 279.451 -4.81736 -1.63733 0
M  V30 2917 H 278.849 -3.42878 -4.49945 0
M  V30 2918 H 277.406 -4.24947 -4.9423 0
M  V30 2919 N 280.839 0.0985539 -1.57292 0
M  V30 2920 C 281.769 1.12064 -2.04851 0
M  V30 2921 C 282.75 1.41981 -0.936767 0
M  V30 2922 O 283.935 1.52071 -1.20781 0
M  V30 2923 C 281.065 2.44144 -2.47004 0
M  V30 2924 C 280.019 2.28643 -3.6181 0
M  V30 2925 C 279.345 3.65869 -3.89929 0
M  V30 2926 C 280.645 1.72986 -4.92822 0
M  V30 2927 H 282.339 0.724979 -2.9049 0
M  V30 2928 H 279.885 0.34729 -1.39749 0
M  V30 2929 H 281.838 3.15914 -2.78884 0
M  V30 2930 H 280.562 2.85639 -1.5836 0
M  V30 2931 H 279.221 1.59318 -3.30172 0
M  V30 2932 H 278.869 4.04885 -2.98458 0
M  V30 2933 H 278.569 3.56344 -4.67218 0
M  V30 2934 H 280.093 4.39112 -4.2428 0
M  V30 2935 H 281.507 2.34593 -5.23105 0
M  V30 2936 H 279.904 1.74229 -5.74251 0
M  V30 2937 H 280.974 0.689007 -4.7998 0
M  V30 2938 N 282.317 1.53212 0.369288 0
M  V30 2939 C 283.594 1.59815 1.12776 0
M  V30 2940 C 283.974 0.403402 2.0721 0
M  V30 2941 O 283.322 -0.606667 2.20299 0
M  V30 2942 C 283.532 2.94664 1.87013 0
M  V30 2943 C 284.88 3.49109 2.41677 0
M  V30 2944 O 285.904 2.96669 1.97144 0
M  V30 2945 O 284.763 4.40775 3.23079 0
M  V30 2946 H 281.857 0.645376 0.517125 0
M  V30 2947 H 284.403 1.65553 0.37285 0
M  V30 2948 H 283.175 3.73061 1.18071 0
M  V30 2949 H 282.798 2.92401 2.69421 0
M  V30 2950 N 283.795 -0.628877 1.44509 0
M  V30 2951 C 284.725 -1.75187 1.54376 0
M  V30 2952 C 285.706 -1.65411 0.396618 0
M  V30 2953 O 286.891 -1.84137 0.617031 0
M  V30 2954 C 284.021 -3.13725 1.48976 0
M  V30 2955 C 282.975 -3.38291 2.62189 0
M  V30 2956 C 282.301 -4.76883 2.41841 0
M  V30 2957 C 283.601 -3.30632 4.04326 0
M  V30 2958 H 285.295 -1.67187 2.48373 0
M  V30 2959 H 282.841 -0.802909 1.19538 0
M  V30 2960 H 284.794 -3.92064 1.54478 0
M  V30 2961 H 283.518 -3.22515 0.514961 0
M  V30 2962 H 282.177 -2.62334 2.56079 0
M  V30 2963 H 281.825 -4.82378 1.42548 0
M  V30 2964 H 281.525 -4.94278 3.17747 0
M  V30 2965 H 283.049 -5.57449 2.49165 0
M  V30 2966 H 284.463 -3.98873 4.11793 0
M  V30 2967 H 282.86 -3.59561 4.80454 0
M  V30 2968 H 283.93 -2.28404 4.27738 0
M  V30 2969 N 285.273 -1.31445 -0.869486 0
M  V30 2970 C 286.52 -1.21158 -1.62256 0
M  V30 2971 C 286.848 0.230155 -1.93133 0
M  V30 2972 O 286.103 1.17906 -1.56194 0
M  V30 2973 C 286.402 -2.00145 -2.96102 0
M  V30 2974 C 286.068 -3.4964 -2.84715 0
M  V30 2975 C 284.73 -3.90403 -2.81317 0
M  V30 2976 C 287.082 -4.44769 -2.71716 0
M  V30 2977 C 284.41 -5.24561 -2.62778 0
M  V30 2978 C 286.762 -5.79054 -2.54714 0
M  V30 2979 C 285.426 -6.19037 -2.49699 0
M  V30 2980 H 284.696 -0.443348 -0.593737 0
M  V30 2981 H 287.343 -1.62715 -1.00976 0
M  V30 2982 H 285.648 -1.5127 -3.6142 0
M  V30 2983 H 287.345 -1.89566 -3.53363 0
M  V30 2984 H 283.935 -3.17256 -2.88178 0
M  V30 2985 H 288.119 -4.14208 -2.73397 0
M  V30 2986 H 283.375 -5.54613 -2.57321 0
M  V30 2987 H 287.549 -6.52393 -2.43632 0
M  V30 2988 H 285.176 -7.22935 -2.35093 0
M  V30 2989 N 286.751 1.08385 -1.14413 0
M  V30 2990 C 288.167 1.32844 -0.884563 0
M  V30 2991 C 288.367 1.95841 0.474181 0
M  V30 2992 O 287.423 2.21158 1.21842 0
M  V30 2993 C 288.736 2.22978 -2.01745 0
M  V30 2994 C 290.284 2.36458 -2.05077 0
M  V30 2995 C 290.759 3.29934 -3.1766 0
M  V30 2996 N 292.25 3.37511 -3.17239 0
M  V30 2997 C 292.985 4.09871 -4.0099 0
M  V30 2998 N 292.481 4.84936 -4.94781 0
M  V30 2999 N 294.274 4.05704 -3.89051 0
M  V30 3000 H 286.425 0.658756 -2.01926 0
M  V30 3001 H 288.688 0.352821 -0.879899 0
M  V30 3002 H 288.394 1.83934 -2.99769 0
M  V30 3003 H 288.268 3.23441 -1.94077 0
M  V30 3004 H 290.655 2.7476 -1.0766 0
M  V30 3005 H 290.736 1.35736 -2.16816 0
M  V30 3006 H 290.38 2.92352 -4.15322 0
M  V30 3007 H 290.31 4.30584 -3.03158 0
M  V30 3008 H 292.801 2.83996 -2.49308 0
M  V30 3009 H 293.114 5.37612 -5.55151 0
M  V30 3010 H 291.459 4.83988 -4.98779 0
M  V30 3011 H 294.65 3.46167 -3.15097 0
M  V30 3012 H 294.823 4.61834 -4.54547 0
M  V30 3013 N 288.23 0.939286 1.26551 0
M  V30 3014 C 289.16 0.465044 2.28822 0
M  V30 3015 C 290.141 -0.480692 1.63167 0
M  V30 3016 O 291.326 -0.382955 1.90387 0
M  V30 3017 C 288.456 -0.27234 3.46231 0
M  V30 3018 C 287.41 0.58666 4.2396 0
M  V30 3019 C 286.736 -0.280573 5.33963 0
M  V30 3020 C 288.036 1.85704 4.88171 0
M  V30 3021 H 289.73 1.31979 2.68741 0
M  V30 3022 H 287.276 0.636061 1.29191 0
M  V30 3023 H 289.229 -0.615133 4.16886 0
M  V30 3024 H 287.953 -1.16121 3.0526 0
M  V30 3025 H 286.612 0.91232 3.55067 0
M  V30 3026 H 286.26 -1.16874 4.89234 0
M  V30 3027 H 285.96 0.29076 5.8688 0
M  V30 3028 H 287.484 -0.618678 6.07458 0
M  V30 3029 H 288.898 1.58161 5.51052 0
M  V30 3030 H 287.295 2.37279 5.51197 0
M  V30 3031 H 288.365 2.56957 4.11219 0
M  V30 3032 N 289.708 -1.40897 0.706093 0
M  V30 3033 C 290.638 -2.33418 0.0620085 0
M  V30 3034 C 291.619 -1.52385 -0.755827 0
M  V30 3035 O 292.804 -1.80886 -0.706674 0
M  V30 3036 C 289.934 -3.36293 -0.867445 0
M  V30 3037 C 288.888 -4.27716 -0.155932 0
M  V30 3038 C 288.214 -5.2105 -1.20046 0
M  V30 3039 C 289.514 -5.12944 0.984149 0
M  V30 3040 H 291.208 -2.87527 0.83477 0
M  V30 3041 H 288.754 -1.38249 0.402875 0
M  V30 3042 H 290.707 -3.99949 -1.32735 0
M  V30 3043 H 289.431 -2.80556 -1.67199 0
M  V30 3044 H 288.09 -3.65498 0.284047 0
M  V30 3045 H 287.738 -4.61624 -1.99781 0
M  V30 3046 H 287.438 -5.83056 -0.729328 0
M  V30 3047 H 288.962 -5.87584 -1.66066 0
M  V30 3048 H 290.376 -5.70109 0.604048 0
M  V30 3049 H 288.773 -5.83945 1.38304 0
M  V30 3050 H 289.843 -4.49485 1.81911 0
M  V30 3051 N 291.186 -0.45159 -1.50991 0
M  V30 3052 C 292.463 0.170707 -1.94854 0
M  V30 3053 C 292.843 1.58788 -1.39103 0
M  V30 3054 O 292.191 2.20913 -0.583921 0
M  V30 3055 C 292.401 0.133929 -3.48743 0
M  V30 3056 C 293.749 0.33248 -4.23296 0
M  V30 3057 O 294.773 0.211403 -3.55572 0
M  V30 3058 O 293.632 0.57486 -5.43468 0
M  V30 3059 H 290.726 0.122264 -0.817912 0
M  V30 3060 H 293.272 -0.510594 -1.61836 0
M  V30 3061 H 292.044 -0.856283 -3.81816 0
M  V30 3062 H 291.667 0.857529 -3.88242 0
M  V30 3063 N 292.664 1.56529 -0.183458 0
M  V30 3064 C 293.596 2.15747 0.773697 0
M  V30 3065 C 294.609 1.1162 1.1851 0
M  V30 3066 O 295.798 1.3876 1.12285 0
M  V30 3067 C 292.898 2.6952 2.05456 0
M  V30 3068 C 292.071 3.98429 1.8048 0
M  V30 3069 C 291.13 4.37145 2.92901 0
M  V30 3070 O 290.156 5.04791 2.6301 0
M  V30 3071 N 291.358 3.99695 4.2098 0
M  V30 3072 H 294.123 2.98505 0.26736 0
M  V30 3073 H 291.684 1.619 -0.0010878 0
M  V30 3074 H 293.676 2.92412 2.79781 0
M  V30 3075 H 292.246 1.91282 2.47245 0
M  V30 3076 H 291.466 3.8379 0.899947 0
M  V30 3077 H 292.754 4.82597 1.61175 0
M  V30 3078 H 292.152 3.4526 4.48121 0
M  V30 3079 H 290.709 4.27562 4.9197 0
M  V30 3080 N 294.142 -0.090211 1.57342 0
M  V30 3081 C 295.09 -1.12792 2.03422 0
M  V30 3082 C 296.084 -1.41182 0.936166 0
M  V30 3083 O 297.29 -1.40805 1.12133 0
M  V30 3084 H 293.665 -0.380986 0.648347 0
M  V30 3085 H 295.636 -0.71299 2.89757 0
M  V30 3086 C 294.385 -2.43855 2.47851 0
M  V30 3087 H 293.708 -2.22855 3.31927 0
M  V30 3088 H 295.148 -3.14955 2.83865 0
M  V30 3089 C 293.607 -3.08503 1.3538 0
M  V30 3090 O 294.137 -3.95805 0.685641 0
M  V30 3091 N 292.343 -2.68831 1.10355 0
M  V30 3092 H 291.89 -1.97929 1.64869 0
M  V30 3093 H 291.848 -3.12412 0.353031 0
M  V30 3094 N 295.62 -1.53406 -0.361157 0
M  V30 3095 C 297.036 -1.43277 -0.703124 0
M  V30 3096 C 297.236 -0.575384 -1.9311 0
M  V30 3097 O 296.292 -0.0595362 -2.5243 0
M  V30 3098 C 297.605 -2.8653 -0.9122 0
M  V30 3099 C 299.153 -2.96191 -1.01193 0
M  V30 3100 C 299.628 -4.40514 -1.25345 0
M  V30 3101 N 301.119 -4.43962 -1.32105 0
M  V30 3102 C 301.854 -5.52746 -1.5251 0
M  V30 3103 N 301.35 -6.71567 -1.70203 0
M  V30 3104 N 303.143 -5.40331 -1.54916 0
M  V30 3105 H 295.294 -2.07654 0.446475 0
M  V30 3106 H 297.557 -0.937944 0.137715 0
M  V30 3107 H 297.263 -3.51605 -0.0816414 0
M  V30 3108 H 297.137 -3.30441 -1.81903 0
M  V30 3109 H 299.524 -2.31266 -1.83303 0
M  V30 3110 H 299.605 -2.55667 -0.0823929 0
M  V30 3111 H 299.249 -5.06014 -0.437346 0
M  V30 3112 H 299.179 -4.78614 -2.19627 0
M  V30 3113 H 301.67 -3.58332 -1.20028 0
M  V30 3114 H 301.983 -7.50241 -1.85359 0
M  V30 3115 H 300.328 -6.74545 -1.67373 0
M  V30 3116 H 303.519 -4.46465 -1.40663 0
M  V30 3117 H 303.692 -6.25173 -1.70477 0
M  V30 3118 N 297.098 0.621204 -1.44841 0
M  V30 3119 C 298.375 1.38 -1.38619 0
M  V30 3120 C 298.755 2.11041 -0.0498935 0
M  V30 3121 O 298.103 2.06992 0.967816 0
M  V30 3122 C 298.313 2.33817 -2.59096 0
M  V30 3123 C 299.661 2.96844 -3.03593 0
M  V30 3124 O 300.685 2.44141 -2.59371 0
M  V30 3125 O 299.544 3.92476 -3.80296 0
M  V30 3126 H 296.638 0.61811 -0.549426 0
M  V30 3127 H 299.184 0.645429 -1.56947 0
M  V30 3128 H 297.956 1.79012 -3.47952 0
M  V30 3129 H 297.579 3.14676 -2.43032 0
M  V30 3130 N 298.576 1.31904 0.862503 0
M  V30 3131 C 299.824 1.21776 1.61292 0
M  V30 3132 C 300.145 -0.222413 1.93727 0
M  V30 3133 O 299.415 -1.1451 1.58947 0
M  V30 3134 H 297.995 0.447717 0.597962 0
M  V30 3135 H 300.657 1.65326 1.03215 0
M  V30 3136 H 299.753 1.7948 2.5533 0
M  V30 3137 N 300.054 -1.07777 1.14986 0
M  V30 3138 C 301.004 -2.13082 0.811181 0
M  V30 3139 C 301.988 -1.59619 -0.202597 0
M  V30 3140 O 303.18 -1.77 -0.00398275 0
M  V30 3141 C 300.309 -3.42009 0.297439 0
M  V30 3142 C 299.395 -4.02337 1.34112 0
M  V30 3143 N 299.786 -4.36982 2.54716 0
M  V30 3144 C 298.084 -4.29752 1.19285 0
M  V30 3145 C 298.785 -4.84729 3.21578 0
M  V30 3146 N 297.761 -4.83233 2.48972 0
M  V30 3147 H 301.563 -2.37696 1.72853 0
M  V30 3148 H 299.077 -1.25173 1.03468 0
M  V30 3149 H 301.074 -4.16884 0.0364777 0
M  V30 3150 H 299.734 -3.18841 -0.614022 0
M  V30 3151 H 300.745 -4.27807 2.91894 0
M  V30 3152 H 297.422 -4.16106 0.340926 0
M  V30 3153 H 298.812 -5.20863 4.24442 0
M  V30 3154 N 301.532 -0.945985 -1.26051 0
M  V30 3155 C 302.462 -0.477172 -2.28572 0
M  V30 3156 C 303.443 0.472032 -1.63419 0
M  V30 3157 O 304.628 0.372853 -1.90587 0
M  V30 3158 C 301.758 0.253975 -3.4637 0
M  V30 3159 C 300.712 -0.609135 -4.23643 0
M  V30 3160 C 300.038 0.252252 -5.34105 0
M  V30 3161 C 301.338 -1.8829 -4.8718 0
M  V30 3162 H 303.032 -1.33402 -2.68038 0
M  V30 3163 H 300.578 -0.642904 -1.28852 0
M  V30 3164 H 302.531 0.593016 -4.17207 0
M  V30 3165 H 301.255 1.145 -3.05871 0
M  V30 3166 H 299.914 -0.931138 -3.54578 0
M  V30 3167 H 299.562 1.14278 -4.89846 0
M  V30 3168 H 299.262 -0.32188 -5.86718 0
M  V30 3169 H 300.786 0.586454 -6.07777 0
M  V30 3170 H 302.2 -1.61081 -5.50205 0
M  V30 3171 H 300.597 -2.40199 -5.49931 0
M  V30 3172 H 301.667 -2.59134 -4.09851 0
M  V30 3173 N 303.011 1.40521 -0.713556 0
M  V30 3174 C 303.943 2.29191 -0.0203126 0
M  V30 3175 C 304.956 1.45723 0.725864 0
M  V30 3176 O 306.145 1.69033 0.573581 0
M  V30 3177 C 303.245 3.2395 0.995486 0
M  V30 3178 C 302.418 4.36262 0.315256 0
M  V30 3179 C 301.477 5.11474 1.23616 0
M  V30 3180 O 300.503 5.64606 0.721719 0
M  V30 3181 N 301.705 5.20638 2.56743 0
M  V30 3182 H 304.47 2.89327 -0.781652 0
M  V30 3183 H 302.031 1.51869 -0.561022 0
M  V30 3184 H 304.023 3.71137 1.61368 0
M  V30 3185 H 302.593 2.64995 1.6582 0
M  V30 3186 H 301.813 3.91228 -0.483106 0
M  V30 3187 H 303.101 5.08558 -0.157004 0
M  V30 3188 H 302.499 4.7895 3.01037 0
M  V30 3189 H 301.056 5.71339 3.13712 0
M  V30 3190 N 304.489 0.459591 1.5075 0
M  V30 3191 C 305.419 -0.330644 2.31147 0
M  V30 3192 C 306.4 -1.00087 1.37538 0
M  V30 3193 O 307.585 -1.00025 1.66459 0
M  V30 3194 C 304.715 -1.41958 3.16962 0
M  V30 3195 C 303.669 -0.871608 4.19031 0
M  V30 3196 C 302.995 -2.05797 4.9351 0
M  V30 3197 C 304.295 0.109251 5.22186 0
M  V30 3198 H 305.989 0.340336 2.97459 0
M  V30 3199 H 303.535 0.165119 1.4305 0
M  V30 3200 H 305.488 -1.9798 3.71997 0
M  V30 3201 H 304.212 -2.11917 2.48513 0
M  V30 3202 H 302.871 -0.333442 3.6508 0
M  V30 3203 H 302.519 -2.74427 4.21544 0
M  V30 3204 H 302.219 -1.6976 5.62544 0
M  V30 3205 H 303.743 -2.62331 5.51375 0
M  V30 3206 H 305.157 -0.361405 5.7216 0
M  V30 3207 H 303.554 0.383316 5.98875 0
M  V30 3208 H 304.624 1.03887 4.73641 0
M  V30 3209 N 305.967 -1.56429 0.191757 0
M  V30 3210 C 307.383 -1.58754 -0.164137 0
M  V30 3211 C 307.583 -1.20782 -1.61288 0
M  V30 3212 O 306.639 -0.928999 -2.34789 0
M  V30 3213 C 307.952 -3.00396 0.135195 0
M  V30 3214 C 309.5 -3.1291 0.0750351 0
M  V30 3215 C 309.975 -4.56679 0.347632 0
M  V30 3216 N 311.466 -4.62252 0.296131 0
M  V30 3217 C 312.201 -5.71379 0.480948 0
M  V30 3218 N 311.697 -6.88986 0.725933 0
M  V30 3219 N 313.49 -5.60563 0.415435 0
M  V30 3220 H 305.641 -1.79393 1.13718 0
M  V30 3221 H 307.904 -0.832414 0.453643 0
M  V30 3222 H 307.61 -3.32726 1.13958 0
M  V30 3223 H 307.484 -3.72963 -0.563773 0
M  V30 3224 H 309.871 -2.80394 -0.919948 0
M  V30 3225 H 309.952 -2.42736 0.807029 0
M  V30 3226 H 309.596 -4.89907 1.33992 0
M  V30 3227 H 309.526 -5.25039 -0.405212 0
M  V30 3228 H 312.017 -3.7773 0.113259 0
M  V30 3229 H 312.33 -7.68046 0.855857 0
M  V30 3230 H 310.675 -6.90801 0.762788 0
M  V30 3231 H 313.866 -4.67561 0.224486 0
M  V30 3232 H 314.039 -6.45551 0.562889 0
M  V30 3233 N 307.445 0.0818655 -1.57387 0
M  V30 3234 C 308.355 1.11642 -2.06333 0
M  V30 3235 C 309.371 1.43033 -0.99083 0
M  V30 3236 O 310.547 1.53411 -1.30488 0
M  V30 3237 C 307.612 2.41342 -2.48907 0
M  V30 3238 C 306.673 2.17014 -3.7041 0
M  V30 3239 C 305.906 3.4053 -4.10944 0
M  V30 3240 O 306.129 4.4927 -3.51444 0
M  V30 3241 O 305.063 3.29336 -5.03807 0
M  V30 3242 H 308.889 0.730657 -2.9478 0
M  V30 3243 H 306.474 0.295301 -1.46452 0
M  V30 3244 H 308.356 3.17691 -2.76858 0
M  V30 3245 H 307.031 2.79319 -1.63593 0
M  V30 3246 H 305.938 1.38403 -3.47556 0
M  V30 3247 H 307.271 1.83923 -4.56545 0
M  V30 3248 N 308.923 1.53595 0.353017 0
M  V30 3249 C 310.169 1.70638 1.09593 0
M  V30 3250 C 310.502 0.463286 1.88593 0
M  V30 3251 O 309.777 -0.539597 1.86865 0
M  V30 3252 C 310.06 2.96406 2.04489 0
M  V30 3253 C 309.913 4.30901 1.29014 0
M  V30 3254 C 311.232 3.17812 3.0444 0
M  V30 3255 H 308.351 0.620913 0.397034 0
M  V30 3256 H 310.993 1.86254 0.375446 0
M  V30 3257 H 309.143 2.83223 2.65927 0
M  V30 3258 H 310.815 4.55917 0.702638 0
M  V30 3259 H 309.058 4.29741 0.592071 0
M  V30 3260 H 309.729 5.1506 1.98537 0
M  V30 3261 H 312.205 3.30263 2.53112 0
M  V30 3262 H 311.081 4.07223 3.6805 0
M  V30 3263 H 311.342 2.33669 3.75301 0
M  V30 3264 N 310.401 -0.613514 1.45168 0
M  V30 3265 C 311.331 -1.7354 1.56225 0
M  V30 3266 C 312.312 -1.64981 0.41414 0
M  V30 3267 O 313.497 -1.83472 0.636526 0
M  V30 3268 C 310.627 -3.12128 1.52295 0
M  V30 3269 C 309.581 -3.35491 2.65762 0
M  V30 3270 C 308.907 -4.74291 2.46885 0
M  V30 3271 C 310.207 -3.26325 4.0781 0
M  V30 3272 H 311.901 -1.64543 2.50132 0
M  V30 3273 H 309.447 -0.790185 1.20383 0
M  V30 3274 H 311.4 -3.90404 1.58628 0
M  V30 3275 H 310.124 -3.2195 0.549139 0
M  V30 3276 H 308.783 -2.59603 2.58847 0
M  V30 3277 H 308.431 -4.80839 1.47657 0
M  V30 3278 H 308.131 -4.9088 3.22972 0
M  V30 3279 H 309.655 -5.54775 2.55063 0
M  V30 3280 H 311.069 -3.94483 4.16 0
M  V30 3281 H 309.466 -3.54445 4.8424 0
M  V30 3282 H 310.536 -2.23855 4.30136 0
M  V30 3283 N 311.879 -1.3236 -0.855495 0
M  V30 3284 C 312.842 -1.21164 -1.94556 0
M  V30 3285 C 313.842 -0.134908 -1.60233 0
M  V30 3286 O 315.032 -0.385249 -1.69887 0
M  V30 3287 C 312.164 -0.863192 -3.29791 0
M  V30 3288 H 313.357 -2.18038 -2.05911 0
M  V30 3289 H 310.91 -1.16179 -1.04557 0
M  V30 3290 H 311.645 0.103769 -3.24134 0
M  V30 3291 H 311.43 -1.64166 -3.56078 0
M  V30 3292 H 312.92 -0.809156 -4.09686 0
M  V30 3293 N 313.357 1.07166 -1.15556 0
M  V30 3294 C 314.289 2.14341 -0.811815 0
M  V30 3295 C 315.302 1.61835 0.177015 0
M  V30 3296 O 316.491 1.78439 -0.0464996 0
M  V30 3297 C 313.591 3.38387 -0.186481 0
M  V30 3298 C 312.764 4.20238 -1.21321 0
M  V30 3299 C 311.823 5.2266 -0.609302 0
M  V30 3300 O 310.849 5.54719 -1.27576 0
M  V30 3301 N 312.051 5.77306 0.608099 0
M  V30 3302 H 314.816 2.44431 -1.73417 0
M  V30 3303 H 312.377 1.23089 -1.0517 0
M  V30 3304 H 314.369 4.04044 0.230339 0
M  V30 3305 H 312.939 3.05994 0.639249 0
M  V30 3306 H 312.159 3.50369 -1.80652 0
M  V30 3307 H 313.447 4.71736 -1.90638 0
M  V30 3308 H 312.845 5.53513 1.1679 0
M  V30 3309 H 311.402 6.44583 0.96725 0
M  V30 3310 N 314.835 0.952656 1.25548 0
M  V30 3311 C 316.063 0.623496 1.97282 0
M  V30 3312 C 316.478 -0.803987 1.70826 0
M  V30 3313 O 315.835 -1.53755 0.983147 0
M  V30 3314 C 315.886 0.870209 3.5087 0
M  V30 3315 O 315.607 2.24156 3.76412 0
M  V30 3316 C 317.108 0.553164 4.39835 0
M  V30 3317 H 314.328 0.233931 0.628902 0
M  V30 3318 H 316.872 1.27649 1.59768 0
M  V30 3319 H 315.027 0.263652 3.86502 0
M  V30 3320 H 315.441 2.31021 4.70882 0
M  V30 3321 H 316.915 0.776342 5.46513 0
M  V30 3322 H 317.392 -0.512215 4.36203 0
M  V30 3323 H 317.998 1.13896 4.09766 0
M  V30 3324 N 316.313 -1.40141 0.720998 0
M  V30 3325 C 317.729 -1.54632 0.395113 0
M  V30 3326 C 317.929 -1.69115 -1.09555 0
M  V30 3327 O 316.985 -1.68377 -1.88163 0
M  V30 3328 C 318.298 -2.77177 1.1659 0
M  V30 3329 C 319.846 -2.91 1.15274 0
M  V30 3330 C 320.321 -4.16465 1.90579 0
M  V30 3331 N 321.812 -4.23476 1.87675 0
M  V30 3332 C 322.547 -5.19475 2.42762 0
M  V30 3333 N 322.043 -6.21348 3.06428 0
M  V30 3334 N 323.836 -5.11592 2.32874 0
M  V30 3335 H 315.987 -1.28986 1.68749 0
M  V30 3336 H 318.25 -0.62412 0.713567 0
M  V30 3337 H 317.956 -2.72771 2.22011 0
M  V30 3338 H 317.83 -3.69442 0.76108 0
M  V30 3339 H 320.217 -2.94907 0.106702 0
M  V30 3340 H 320.298 -1.99838 1.59682 0
M  V30 3341 H 319.942 -4.1332 2.95176 0
M  V30 3342 H 319.872 -5.06646 1.43587 0
M  V30 3343 H 322.363 -3.50497 1.41281 0
M  V30 3344 H 322.676 -6.91034 3.45965 0
M  V30 3345 H 321.021 -6.21777 3.10514 0
M  V30 3346 H 324.212 -4.30936 1.82789 0
M  V30 3347 H 324.385 -5.86233 2.76106 0
M  V30 3348 N 317.792 -0.46758 -1.50504 0
M  V30 3349 C 318.722 0.318381 -2.31319 0
M  V30 3350 C 319.703 0.993564 -1.38066 0
M  V30 3351 O 320.888 0.991411 -1.66987 0
M  V30 3352 C 318.018 1.40275 -3.17711 0
M  V30 3353 C 316.972 0.849373 -4.19487 0
M  V30 3354 C 316.298 2.03177 -4.94594 0
M  V30 3355 C 317.598 -0.136942 -5.2212 0
M  V30 3356 H 319.292 -0.356106 -2.97275 0
M  V30 3357 H 316.838 -0.172703 -1.42961 0
M  V30 3358 H 318.791 1.96004 -3.73042 0
M  V30 3359 H 317.515 2.10596 -2.49634 0
M  V30 3360 H 316.174 0.314076 -3.65252 0
M  V30 3361 H 315.822 2.72187 -4.22993 0
M  V30 3362 H 315.522 1.66774 -5.63436 0
M  V30 3363 H 317.046 2.59403 -5.52759 0
M  V30 3364 H 318.46 0.331056 -5.72343 0
M  V30 3365 H 316.857 -0.41507 -5.98663 0
M  V30 3366 H 317.927 -1.06398 -4.73083 0
M  V30 3367 N 319.27 1.56325 -0.20005 0
M  V30 3368 C 320.518 1.97329 0.436547 0
M  V30 3369 C 320.839 1.08826 1.61808 0
M  V30 3370 O 320.109 0.160604 1.95241 0
M  V30 3371 H 318.689 0.728714 0.164272 0
M  V30 3372 H 321.351 1.92761 -0.287937 0
M  V30 3373 H 320.447 3.02264 0.777353 0
M  V30 3374 N 320.748 -0.0735177 1.57428 0
M  V30 3375 C 321.696 -1.10628 2.04607 0
M  V30 3376 C 322.69 -1.40181 0.951088 0
M  V30 3377 O 323.896 -1.39608 1.1362 0
M  V30 3378 H 320.271 -0.374088 0.652351 0
M  V30 3379 H 322.242 -0.682218 2.90497 0
M  V30 3380 C 320.991 -2.41212 2.50423 0
M  V30 3381 H 320.314 -2.19322 3.34272 0
M  V30 3382 H 321.754 -3.11927 2.87189 0
M  V30 3383 C 320.213 -3.0705 1.38644 0
M  V30 3384 O 320.743 -3.95056 0.727582 0
M  V30 3385 N 318.949 -2.67645 1.132 0
M  V30 3386 H 318.496 -1.96169 1.66959 0
M  V30 3387 H 318.454 -3.1202 0.386147 0
M  V30 3388 N 322.226 -1.5378 -0.344866 0
M  V30 3389 C 323.474 -1.70625 -1.08311 0
M  V30 3390 C 323.795 -0.471447 -1.89215 0
M  V30 3391 O 323.065 0.514616 -1.8902 0
M  V30 3392 H 321.645 -0.629058 -0.402859 0
M  V30 3393 H 324.307 -1.9103 -0.386459 0
M  V30 3394 H 323.403 -2.57656 -1.76124 0
M  V30 3395 N 323.704 0.605807 -1.45491 0
M  V30 3396 C 324.95 1.36481 -1.50813 0
M  V30 3397 C 325.305 1.91826 -0.148469 0
M  V30 3398 O 324.598 1.72211 0.839869 0
M  V30 3399 C 324.792 2.53012 -2.52428 0
M  V30 3400 C 324.621 2.09078 -3.98141 0
M  V30 3401 C 323.391 1.95167 -4.66088 0
M  V30 3402 C 325.589 1.66438 -4.86624 0
M  V30 3403 N 323.571 1.45062 -5.96515 0
M  V30 3404 C 324.942 1.27761 -6.06694 0
M  V30 3405 C 326.997 1.54046 -4.7347 0
M  V30 3406 C 325.7 0.779286 -7.15066 0
M  V30 3407 C 327.726 1.05618 -5.81892 0
M  V30 3408 C 327.088 0.67906 -7.01119 0
M  V30 3409 H 323.187 0.493267 -0.606805 0
M  V30 3410 H 325.771 0.692347 -1.81974 0
M  V30 3411 H 323.942 3.17851 -2.23215 0
M  V30 3412 H 325.674 3.19897 -2.47887 0
M  V30 3413 H 322.429 2.16407 -4.21266 0
M  V30 3414 H 322.853 1.22237 -6.65873 0
M  V30 3415 H 327.495 1.81827 -3.81705 0
M  V30 3416 H 325.213 0.489026 -8.06619 0
M  V30 3417 H 328.799 0.964529 -5.73749 0
M  V30 3418 H 327.679 0.310091 -7.83587 0
M  V30 3419 N 325.182 1.32811 0.848464 0
M  V30 3420 C 326.428 1.24917 1.60522 0
M  V30 3421 C 326.783 -0.185761 1.91501 0
M  V30 3422 O 326.076 -1.12524 1.55077 0
M  V30 3423 C 326.27 2.04831 2.92881 0
M  V30 3424 C 326.099 3.55949 2.74828 0
M  V30 3425 C 324.869 4.25277 2.72887 0
M  V30 3426 C 327.067 4.50476 2.48145 0
M  V30 3427 N 325.049 5.62408 2.46111 0
M  V30 3428 C 326.42 5.75427 2.30832 0
M  V30 3429 C 328.475 4.39665 2.33664 0
M  V30 3430 C 327.178 6.90789 2.00508 0
M  V30 3431 C 329.204 5.54833 2.04731 0
M  V30 3432 C 328.566 6.78787 1.88223 0
M  V30 3433 H 324.665 0.512279 0.590842 0
M  V30 3434 H 327.249 1.67246 0.996839 0
M  V30 3435 H 325.42 1.64837 3.51686 0
M  V30 3436 H 327.152 1.88782 3.57971 0
M  V30 3437 H 323.907 3.77456 2.86049 0
M  V30 3438 H 324.331 6.3467 2.35634 0
M  V30 3439 H 328.973 3.44477 2.45144 0
M  V30 3440 H 326.691 7.85984 1.87765 0
M  V30 3441 H 330.277 5.48398 1.94295 0
M  V30 3442 H 329.157 7.66396 1.66155 0
M  V30 3443 N 326.66 -1.06551 1.16123 0
M  V30 3444 C 327.593 -2.13382 0.80892 0
M  V30 3445 C 328.571 -1.61128 -0.21827 0
M  V30 3446 O 329.755 -1.88219 -0.102952 0
M  V30 3447 C 326.882 -3.38083 0.204303 0
M  V30 3448 C 325.928 -4.09133 1.20469 0
M  V30 3449 S 326.761 -4.5948 2.75024 0
M  V30 3450 C 327.917 -5.87446 2.16005 0
M  V30 3451 H 328.15 -2.42937 1.71373 0
M  V30 3452 H 325.683 -1.18947 0.984428 0
M  V30 3453 H 327.641 -4.10268 -0.138081 0
M  V30 3454 H 326.302 -3.0669 -0.678234 0
M  V30 3455 H 325.495 -4.98685 0.730019 0
M  V30 3456 H 325.097 -3.4295 1.49202 0
M  V30 3457 H 327.389 -6.60065 1.5271 0
M  V30 3458 H 328.332 -6.39639 3.03756 0
M  V30 3459 H 328.74 -5.41354 1.59989 0
M  V30 3460 N 328.138 -0.959301 -1.25041 0
M  V30 3461 C 329.366 -0.633949 -1.96948 0
M  V30 3462 C 329.781 0.794916 -1.7125 0
M  V30 3463 O 329.138 1.53231 -0.991287 0
M  V30 3464 C 329.189 -0.888805 -3.50403 0
M  V30 3465 O 328.91 -2.26149 -3.75218 0
M  V30 3466 C 330.411 -0.576482 -4.39536 0
M  V30 3467 H 327.631 -0.237263 -0.627652 0
M  V30 3468 H 330.175 -1.28495 -1.59089 0
M  V30 3469 H 328.33 -0.284145 -3.86357 0
M  V30 3470 H 328.744 -2.33514 -4.6965 0
M  V30 3471 H 330.218 -0.805314 -5.46094 0
M  V30 3472 H 330.695 0.489075 -4.36468 0
M  V30 3473 H 331.301 -1.16067 -4.09156 0
M  V30 3474 N 329.616 1.39756 -0.72842 0
M  V30 3475 C 331.027 1.83498 -0.344289 0
M  V30 3476 C 331.378 1.60868 1.12321 0
M  V30 3477 O 330.503 1.09634 1.86573 0
M  V30 3478 C 331.098 3.33114 -0.618112 0
M  V30 3479 C 329.657 3.753 -0.287549 0
M  V30 3480 C 328.804 2.62831 -0.884048 0
M  V30 3481 H 331.755 1.28842 -0.926578 0
M  V30 3482 H 331.776 3.80334 0.112349 0
M  V30 3483 H 331.288 3.49553 -1.68625 0
M  V30 3484 H 329.389 3.64451 0.775012 0
M  V30 3485 H 329.502 4.72945 -0.765512 0
M  V30 3486 H 327.866 2.52792 -0.311149 0
M  V30 3487 H 328.649 2.82078 -1.95671 0
M  V30 3488 N 331.094 0.475555 1.50254 0
M  V30 3489 C 332.004 -0.321501 2.32387 0
M  V30 3490 C 333.02 -0.991755 1.42969 0
M  V30 3491 O 334.196 -0.978747 1.76018 0
M  V30 3492 C 331.261 -1.38667 3.17762 0
M  V30 3493 C 330.322 -0.732538 4.23004 0
M  V30 3494 C 329.555 -1.74695 5.04299 0
M  V30 3495 O 329.778 -2.97399 4.86734 0
M  V30 3496 O 328.712 -1.31631 5.8733 0
M  V30 3497 H 332.538 0.350071 3.01676 0
M  V30 3498 H 330.123 0.237321 1.47503 0
M  V30 3499 H 332.005 -2.00354 3.70724 0
M  V30 3500 H 330.68 -2.04163 2.51196 0
M  V30 3501 H 329.587 -0.0765902 3.74022 0
M  V30 3502 H 330.92 -0.120452 4.92053 0
M  V30 3503 N 332.573 -1.56217 0.208337 0
M  V30 3504 C 333.798 -2.02782 -0.435222 0
M  V30 3505 C 334.223 -1.08738 -1.53485 0
M  V30 3506 O 333.581 -0.0731855 -1.81152 0
M  V30 3507 C 333.629 -3.47687 -0.956335 0
M  V30 3508 O 332.733 -3.56773 -2.06849 0
M  V30 3509 H 332.074 -0.656403 -0.100158 0
M  V30 3510 H 334.604 -2.02033 0.3231 0
M  V30 3511 H 334.614 -3.87745 -1.26955 0
M  V30 3512 H 333.289 -4.15624 -0.15143 0
M  V30 3513 H 331.866 -3.28597 -1.76292 0
M  V30 3514 N 334.051 0.0651679 -1.57465 0
M  V30 3515 C 335.3 0.761916 -1.86756 0
M  V30 3516 C 335.613 1.78406 -0.801925 0
M  V30 3517 O 336.819 2.53084 -0.982885 0
M  V30 3518 C 335.275 1.40603 -3.31299 0
M  V30 3519 C 334.883 0.422115 -4.46007 0
M  V30 3520 C 336.627 2.08476 -3.69781 0
M  V30 3521 C 334.534 1.07252 -5.81593 0
M  V30 3522 H 333.464 0.288308 -0.696702 0
M  V30 3523 H 336.115 0.015344 -1.83494 0
M  V30 3524 H 334.497 2.20109 -3.29193 0
M  V30 3525 H 335.671 -0.343613 -4.59517 0
M  V30 3526 H 333.986 -0.152527 -4.16121 0
M  V30 3527 H 336.583 2.57925 -4.68379 0
M  V30 3528 H 336.926 2.88712 -2.99919 0
M  V30 3529 H 337.459 1.35792 -3.73905 0
M  V30 3530 H 334.198 0.310342 -6.54765 0
M  V30 3531 H 333.718 1.80895 -5.71872 0
M  V30 3532 H 335.397 1.59043 -6.27148 0
M  V30 3533 N 335.529 1.53961 0.336706 0
M  V30 3534 C 336.461 1.78751 1.4346 0
M  V30 3535 C 337.474 0.669019 1.48418 0
M  V30 3536 O 338.663 0.945884 1.51378 0
M  V30 3537 C 335.763 1.87844 2.82078 0
M  V30 3538 C 334.936 3.17854 3.00479 0
M  V30 3539 C 333.995 3.17816 4.19379 0
M  V30 3540 O 333.021 3.91511 4.13168 0
M  V30 3541 N 334.223 2.40669 5.2826 0
M  V30 3542 H 336.988 2.73493 1.22563 0
M  V30 3543 H 334.549 1.53096 0.526625 0
M  V30 3544 H 336.541 1.85261 3.59806 0
M  V30 3545 H 335.111 1.00257 2.96086 0
M  V30 3546 H 334.331 3.33504 2.10163 0
M  V30 3547 H 335.619 4.03718 3.0966 0
M  V30 3548 H 335.017 1.8036 5.36178 0
M  V30 3549 H 333.574 2.43877 6.04456 0
M  V30 3550 N 337.007 -0.598083 1.45811 0
M  V30 3551 C 337.917 -1.73632 1.57763 0
M  V30 3552 C 338.933 -1.67763 0.461676 0
M  V30 3553 O 340.109 -1.87949 0.723685 0
M  V30 3554 C 337.174 -3.10114 1.55018 0
M  V30 3555 C 336.235 -3.27364 2.77726 0
M  V30 3556 C 335.468 -4.57334 2.75102 0
M  V30 3557 O 335.691 -5.40258 1.8297 0
M  V30 3558 O 334.625 -4.77502 3.66437 0
M  V30 3559 H 338.451 -1.66498 2.53992 0
M  V30 3560 H 336.036 -0.763308 1.28429 0
M  V30 3561 H 337.918 -3.9141 1.56129 0
M  V30 3562 H 336.593 -3.17718 0.619431 0
M  V30 3563 H 335.5 -2.45619 2.82174 0
M  V30 3564 H 336.833 -3.24641 3.69958 0
M  V30 3565 N 338.485 -1.33259 -0.841409 0
M  V30 3566 C 339.418 -1.1764 -1.95541 0
M  V30 3567 C 340.396 -0.072501 -1.62438 0
M  V30 3568 O 341.58 -0.23427 -1.87039 0
M  V30 3569 C 338.707 -0.803794 -3.29024 0
M  V30 3570 C 337.753 -1.91482 -3.81099 0
M  V30 3571 S 338.586 -3.52538 -4.03085 0
M  V30 3572 C 339.742 -3.17279 -5.39523 0
M  V30 3573 H 339.975 -2.11941 -2.08491 0
M  V30 3574 H 337.508 -1.18072 -0.9949 0
M  V30 3575 H 339.466 -0.595592 -4.06156 0
M  V30 3576 H 338.127 0.120574 -3.13868 0
M  V30 3577 H 337.32 -1.60742 -4.7768 0
M  V30 3578 H 336.922 -2.07956 -3.10854 0
M  V30 3579 H 339.214 -2.67946 -6.22263 0
M  V30 3580 H 340.157 -4.1293 -5.75234 0
M  V30 3581 H 340.565 -2.53943 -5.04156 0
M  V30 3582 N 339.963 1.05934 -1.16686 0
M  V30 3583 C 341.193 1.82226 -0.973515 0
M  V30 3584 C 341.601 1.8297 0.481532 0
M  V30 3585 O 340.944 1.25009 1.34604 0
M  V30 3586 C 341.006 3.29897 -1.42858 0
M  V30 3587 C 340.67 3.52849 -2.90425 0
M  V30 3588 C 341.667 3.45595 -3.88407 0
M  V30 3589 C 339.352 3.80053 -3.28428 0
M  V30 3590 C 341.346 3.65217 -5.22394 0
M  V30 3591 C 339.033 3.99325 -4.62583 0
M  V30 3592 C 340.031 3.91905 -5.59374 0
M  V30 3593 O 339.719 4.10647 -6.91104 0
M  V30 3594 H 339.451 0.581314 -0.345036 0
M  V30 3595 H 342.005 1.3453 -1.55212 0
M  V30 3596 H 340.235 3.78472 -0.793477 0
M  V30 3597 H 341.924 3.87692 -1.20207 0
M  V30 3598 H 342.69 3.24564 -3.60393 0
M  V30 3599 H 338.569 3.84936 -2.53664 0
M  V30 3600 H 342.113 3.59341 -5.9793 0
M  V30 3601 H 338.01 4.19846 -4.90306 0
M  V30 3602 H 338.778 4.27915 -6.97733 0
M  V30 3603 N 341.441 0.965919 1.2453 0
M  V30 3604 C 342.404 0.499547 2.2369 0
M  V30 3605 C 343.404 -0.40294 1.5567 0
M  V30 3606 O 344.594 -0.19865 1.73064 0
M  V30 3607 C 341.726 -0.276792 3.39774 0
M  V30 3608 H 342.919 1.37613 2.66463 0
M  V30 3609 H 340.472 0.750324 1.37112 0
M  V30 3610 H 341.207 -1.17055 3.02438 0
M  V30 3611 H 340.992 0.370826 3.90343 0
M  V30 3612 H 342.482 -0.592175 4.1338 0
M  V30 3613 N 342.919 -1.39368 0.735821 0
M  V30 3614 C 343.882 -2.2896 0.104874 0
M  V30 3615 C 344.882 -1.46347 -0.666274 0
M  V30 3616 O 346.072 -1.67014 -0.49517 0
M  V30 3617 C 343.204 -3.29857 -0.860656 0
M  V30 3618 H 344.397 -2.86259 0.894205 0
M  V30 3619 H 341.95 -1.48029 0.501704 0
M  V30 3620 H 342.685 -2.77615 -1.67631 0
M  V30 3621 H 342.47 -3.9087 -0.310327 0
M  V30 3622 H 343.96 -3.96893 -1.29867 0
M  V30 3623 N 344.397 -0.483516 -1.5 0
M  V30 3624 C 345.646 0.0689102 -2.01582 0
M  V30 3625 C 345.959 1.39655 -1.36952 0
M  V30 3626 O 347.165 2.03465 -1.79762 0
M  V30 3627 C 345.621 0.173302 -3.59483 0
M  V30 3628 C 345.229 -1.14665 -4.33077 0
M  V30 3629 C 346.973 0.677024 -4.19066 0
M  V30 3630 C 344.88 -1.00537 -5.82792 0
M  V30 3631 H 343.81 0.0295277 -0.753422 0
M  V30 3632 H 346.461 -0.620295 -1.72698 0
M  V30 3633 H 344.843 0.926569 -3.85007 0
M  V30 3634 H 346.017 -1.91184 -4.19268 0
M  V30 3635 H 344.332 -1.58244 -3.85159 0
M  V30 3636 H 346.929 0.799952 -5.28682 0
M  V30 3637 H 347.272 1.67151 -3.81269 0
M  V30 3638 H 347.805 -0.0192083 -3.97795 0
M  V30 3639 H 344.544 -1.9736 -6.25083 0
M  V30 3640 H 344.064 -0.280776 -5.99142 0
M  V30 3641 H 345.743 -0.677 -6.43448 0
M  V30 3642 N 345.875 1.56104 -0.216619 0
M  V30 3643 C 346.822 2.2007 0.695531 0
M  V30 3644 C 347.792 1.15471 1.19397 0
M  V30 3645 O 348.977 1.43807 1.25396 0
M  V30 3646 C 346.117 2.88073 1.90021 0
M  V30 3647 C 345.23 4.07253 1.44113 0
M  V30 3648 C 344.365 4.63052 2.603 0
M  V30 3649 C 343.404 5.74545 2.11103 0
M  V30 3650 N 342.541 6.24656 3.20545 0
M  V30 3651 H 347.381 2.97655 0.143327 0
M  V30 3652 H 344.918 1.46982 0.0589934 0
M  V30 3653 H 346.876 3.25681 2.60745 0
M  V30 3654 H 345.506 2.13015 2.42538 0
M  V30 3655 H 344.558 3.75164 0.628999 0
M  V30 3656 H 345.87 4.8783 1.04036 0
M  V30 3657 H 345.024 5.03078 3.39113 0
M  V30 3658 H 343.763 3.81628 3.03663 0
M  V30 3659 H 342.768 5.34027 1.3075 0
M  V30 3660 H 343.993 6.57801 1.68746 0
M  V30 3661 H 341.939 5.46148 3.63399 0
M  V30 3662 H 341.856 7.00343 2.84704 0
M  V30 3663 H 343.124 6.69338 3.99508 0
M  V30 3664 N 347.353 -0.0568162 1.57498 0
M  V30 3665 C 348.316 -1.05038 2.03715 0
M  V30 3666 C 349.316 -1.30709 0.936577 0
M  V30 3667 O 350.506 -1.26178 1.20103 0
M  V30 3668 C 347.638 -2.39034 2.43055 0
M  V30 3669 H 348.831 -0.651715 2.92733 0
M  V30 3670 H 346.384 -0.302947 1.53336 0
M  V30 3671 H 347.119 -2.83703 1.57108 0
M  V30 3672 H 346.904 -2.21739 3.2338 0
M  V30 3673 H 348.394 -3.10421 2.79336 0
M  V30 3674 N 348.832 -1.54138 -0.328536 0
M  V30 3675 C 350.109 -1.62749 -1.08499 0
M  V30 3676 C 350.489 -0.458198 -2.06067 0
M  V30 3677 O 349.837 0.548046 -2.2183 0
M  V30 3678 C 350.047 -2.99519 -1.79135 0
M  V30 3679 C 351.395 -3.55394 -2.32337 0
M  V30 3680 O 352.419 -3.01792 -1.89209 0
M  V30 3681 O 351.278 -4.49186 -3.11279 0
M  V30 3682 H 348.372 -0.65886 -0.499832 0
M  V30 3683 H 350.918 -1.66484 -0.328826 0
M  V30 3684 H 349.69 -3.76061 -1.08139 0
M  V30 3685 H 349.313 -2.99441 -2.61574 0
M  V30 3686 N 350.31 0.590341 -1.46126 0
M  V30 3687 C 351.721 1.17243 -1.45296 0
M  V30 3688 C 352.072 1.95281 -0.189723 0
M  V30 3689 O 351.197 2.04502 0.707674 0
M  V30 3690 C 351.792 2.13284 -2.6324 0
M  V30 3691 C 350.351 2.66832 -2.65476 0
M  V30 3692 C 349.498 1.42557 -2.3785 0
M  V30 3693 H 352.449 0.378692 -1.54116 0
M  V30 3694 H 352.47 2.96619 -2.38323 0
M  V30 3695 H 351.982 1.56459 -3.55165 0
M  V30 3696 H 350.083 3.27548 -1.77603 0
M  V30 3697 H 350.196 3.10088 -3.65215 0
M  V30 3698 H 348.56 1.72107 -1.87753 0
M  V30 3699 H 349.343 0.875741 -3.31942 0
M  V30 3700 N 351.788 1.33704 0.83433 0
M  V30 3701 C 353.065 1.16011 1.57483 0
M  V30 3702 C 353.445 -0.27176 2.09343 0
M  V30 3703 O 352.793 -1.27146 1.89858 0
M  V30 3704 C 353.003 2.20507 2.70514 0
M  V30 3705 C 354.351 2.54898 3.39577 0
M  V30 3706 O 355.375 2.19209 2.80759 0
M  V30 3707 O 354.234 3.16158 4.45765 0
M  V30 3708 H 351.328 0.448992 0.694503 0
M  V30 3709 H 353.874 1.453 0.876691 0
M  V30 3710 H 352.646 3.16667 2.29865 0
M  V30 3711 H 352.269 1.92329 3.47987 0
M  V30 3712 N 353.266 -1.05314 1.17247 0
M  V30 3713 C 354.514 -1.77941 0.958194 0
M  V30 3714 C 354.835 -1.88089 -0.514556 0
M  V30 3715 O 354.105 -1.39676 -1.37359 0
M  V30 3716 H 352.685 -0.659116 0.351533 0
M  V30 3717 H 355.347 -1.27166 1.47699 0
M  V30 3718 H 354.443 -2.79663 1.38546 0
M  V30 3719 N 354.744 -0.972509 -1.24016 0
M  V30 3720 C 356.021 -0.553733 -1.87598 0
M  V30 3721 C 356.401 0.969158 -1.87538 0
M  V30 3722 O 355.749 1.84255 -1.35139 0
M  V30 3723 C 355.959 -1.15076 -3.29482 0
M  V30 3724 C 357.307 -1.23862 -4.06132 0
M  V30 3725 O 358.331 -1.10363 -3.38672 0
M  V30 3726 O 357.19 -1.45252 -5.26844 0
M  V30 3727 H 354.284 -0.185331 -0.805966 0
M  V30 3728 H 356.83 -1.06709 -1.31952 0
M  V30 3729 H 355.602 -2.19333 -3.2405 0
M  V30 3730 H 355.225 -0.621746 -3.92709 0
M  V30 3731 N 356.222 1.38976 -0.743202 0
M  V30 3732 C 357.47 1.99948 -0.29417 0
M  V30 3733 C 357.791 1.59279 1.12495 0
M  V30 3734 O 357.061 0.844808 1.76748 0
M  V30 3735 H 355.641 0.739473 -0.105774 0
M  V30 3736 H 358.303 1.699 -0.954986 0
M  V30 3737 H 357.399 3.10142 -0.349056 0
M  V30 3738 N 357.7 0.491464 1.49741 0
M  V30 3739 C 358.946 -0.0565092 2.02721 0
M  V30 3740 C 359.279 -1.37522 1.37118 0
M  V30 3741 O 358.554 -1.87866 0.503645 0
M  V30 3742 C 358.837 -0.219051 3.59433 0
M  V30 3743 C 358.69 1.12211 4.35579 0
M  V30 3744 C 360.009 -0.964157 4.29409 0
M  V30 3745 H 357.128 -0.0190627 0.736753 0
M  V30 3746 H 359.77 0.641021 1.7886 0
M  V30 3747 H 357.92 -0.813165 3.79895 0
M  V30 3748 H 359.592 1.75437 4.26637 0
M  V30 3749 H 357.835 1.71377 3.98513 0
M  V30 3750 H 358.506 0.961794 5.43556 0
M  V30 3751 H 360.982 -0.460378 4.13545 0
M  V30 3752 H 359.858 -1.04671 5.38828 0
M  V30 3753 H 360.119 -2.00563 3.93988 0
M  V30 3754 N 359.178 -1.55987 0.224894 0
M  V30 3755 C 360.108 -2.23426 -0.678457 0
M  V30 3756 C 361.089 -1.20709 -1.19847 0
M  V30 3757 O 362.274 -1.49304 -1.24186 0
M  V30 3758 C 359.404 -2.91676 -1.88527 0
M  V30 3759 C 358.358 -4.00893 -1.49896 0
M  V30 3760 C 357.684 -4.56455 -2.78483 0
M  V30 3761 C 358.984 -5.17769 -0.686461 0
M  V30 3762 H 360.678 -2.99175 -0.116173 0
M  V30 3763 H 358.224 -1.43897 -0.054436 0
M  V30 3764 H 360.177 -3.37547 -2.5227 0
M  V30 3765 H 358.901 -2.1338 -2.47258 0
M  V30 3766 H 357.56 -3.55758 -0.884985 0
M  V30 3767 H 357.208 -3.74886 -3.35365 0
M  V30 3768 H 356.908 -5.30169 -2.53368 0
M  V30 3769 H 358.432 -5.05047 -3.43162 0
M  V30 3770 H 359.846 -5.60001 -1.22767 0
M  V30 3771 H 358.243 -5.97735 -0.532259 0
M  V30 3772 H 359.313 -4.83932 0.306196 0
M  V30 3773 N 360.656 0.0484629 -1.57525 0
M  V30 3774 C 361.881 0.759177 -1.93006 0
M  V30 3775 C 362.306 1.69125 -0.823317 0
M  V30 3776 O 361.664 1.79931 0.222364 0
M  V30 3777 C 361.712 1.50899 -3.27509 0
M  V30 3778 O 360.816 2.62112 -3.18388 0
M  V30 3779 H 360.157 0.205564 -0.631379 0
M  V30 3780 H 362.687 0.00972959 -2.04598 0
M  V30 3781 H 362.697 1.88317 -3.6194 0
M  V30 3782 H 361.372 0.825269 -4.0763 0
M  V30 3783 H 359.949 2.27379 -2.95556 0
M  V30 3784 N 362.134 1.5431 0.320358 0
M  V30 3785 C 363.064 1.86912 1.3995 0
M  V30 3786 C 364.045 0.726211 1.53819 0
M  V30 3787 O 365.23 0.980233 1.67646 0
M  V30 3788 C 362.36 2.09932 2.7667 0
M  V30 3789 C 361.314 3.25776 2.77586 0
M  V30 3790 C 360.64 3.34173 4.17412 0
M  V30 3791 C 361.94 4.6335 2.41048 0
M  V30 3792 H 363.634 2.77292 1.12914 0
M  V30 3793 H 361.18 1.33421 0.541738 0
M  V30 3794 H 363.133 2.31324 3.52232 0
M  V30 3795 H 361.857 1.16304 3.0519 0
M  V30 3796 H 360.516 3.04276 2.04479 0
M  V30 3797 H 360.164 2.38098 4.43078 0
M  V30 3798 H 359.864 4.12033 4.18931 0
M  V30 3799 H 361.388 3.57803 4.94782 0
M  V30 3800 H 362.802 4.84602 3.06324 0
M  V30 3801 H 361.199 5.43782 2.53813 0
M  V30 3802 H 362.269 4.65381 1.36193 0
M  V30 3803 N 363.613 -0.582584 1.46437 0
M  V30 3804 C 364.545 -1.70618 1.53043 0
M  V30 3805 C 365.558 -1.57322 0.418769 0
M  V30 3806 O 366.747 -1.64744 0.687136 0
M  V30 3807 C 363.847 -3.08869 1.39474 0
M  V30 3808 C 363.02 -3.48166 2.64762 0
M  V30 3809 C 362.079 -4.65478 2.4539 0
M  V30 3810 O 361.105 -4.71333 3.19114 0
M  V30 3811 N 362.307 -5.60365 1.51564 0
M  V30 3812 H 365.072 -1.65405 2.49923 0
M  V30 3813 H 362.633 -0.768567 1.42494 0
M  V30 3814 H 364.625 -3.85143 1.24287 0
M  V30 3815 H 363.195 -3.08449 0.507758 0
M  V30 3816 H 362.415 -2.61598 2.9489 0
M  V30 3817 H 363.703 -3.71188 3.4799 0
M  V30 3818 H 363.101 -5.5837 0.907705 0
M  V30 3819 H 361.658 -6.36068 1.4234 0
M  V30 3820 N 365.091 -1.34144 -0.827227 0
M  V30 3821 C 366.001 -1.27428 -1.96975 0
M  V30 3822 C 367.017 -0.182728 -1.73038 0
M  V30 3823 O 368.193 -0.408426 -1.97215 0
M  V30 3824 C 365.258 -1.02526 -3.31194 0
M  V30 3825 C 364.319 -2.20796 -3.68168 0
M  V30 3826 C 363.552 -1.97073 -4.95982 0
M  V30 3827 O 363.775 -0.926822 -5.6282 0
M  V30 3828 O 362.709 -2.83912 -5.30733 0
M  V30 3829 H 366.535 -2.23537 -2.05584 0
M  V30 3830 H 364.12 -1.14307 -0.961989 0
M  V30 3831 H 366.002 -0.904026 -4.11589 0
M  V30 3832 H 364.677 -0.0945389 -3.23562 0
M  V30 3833 H 363.584 -2.38477 -2.88235 0
M  V30 3834 H 364.917 -3.12243 -3.8048 0
M  V30 3835 N 366.569 1.04691 -1.17803 0
M  V30 3836 C 367.816 1.77782 -0.969532 0
M  V30 3837 C 368.144 1.87926 0.501401 0
M  V30 3838 O 367.399 1.37918 1.38842 0
M  V30 3839 C 367.698 3.21467 -1.56186 0
M  V30 3840 C 367.364 3.3137 -3.05786 0
M  V30 3841 C 366.026 3.3378 -3.46619 0
M  V30 3842 C 368.378 3.31976 -4.01797 0
M  V30 3843 C 365.706 3.34431 -4.82051 0
M  V30 3844 C 368.058 3.34167 -5.37136 0
M  V30 3845 C 366.722 3.34866 -5.77426 0
M  V30 3846 H 365.992 0.650549 -0.354777 0
M  V30 3847 H 368.639 1.23006 -1.46772 0
M  V30 3848 H 366.944 3.79203 -0.985515 0
M  V30 3849 H 368.641 3.76652 -1.37602 0
M  V30 3850 H 365.231 3.3021 -2.73238 0
M  V30 3851 H 369.415 3.29311 -3.71306 0
M  V30 3852 H 364.671 3.33285 -5.12573 0
M  V30 3853 H 368.845 3.33585 -6.11305 0
M  V30 3854 H 366.472 3.35124 -6.82346 0
M  V30 3855 N 368.047 0.979072 1.23499 0
M  V30 3856 C 369.272 0.664845 1.96455 0
M  V30 3857 C 369.697 -0.761287 1.72006 0
M  V30 3858 O 369.055 -1.51837 0.990713 0
M  V30 3859 C 369.103 0.959479 3.47601 0
M  V30 3860 O 368.207 0.0508168 4.12369 0
M  V30 3861 H 367.548 0.250185 0.615064 0
M  V30 3862 H 370.078 1.31231 1.5697 0
M  V30 3863 H 370.088 0.895642 3.98048 0
M  V30 3864 H 368.763 1.99876 3.64723 0
M  V30 3865 H 367.34 0.16895 3.72517 0
M  V30 3866 N 369.525 -1.3858 0.750561 0
M  V30 3867 C 370.473 -2.32339 0.110162 0
M  V30 3868 C 371.467 -1.53864 -0.708674 0
M  V30 3869 O 372.673 -1.69417 -0.608112 0
M  V30 3870 H 369.048 -0.751812 0.0168275 0
M  V30 3871 H 371.019 -2.83959 0.917053 0
M  V30 3872 C 369.768 -3.39043 -0.771067 0
M  V30 3873 H 369.091 -3.99517 -0.150374 0
M  V30 3874 H 370.531 -4.07061 -1.1865 0
M  V30 3875 C 368.99 -2.77365 -1.91234 0
M  V30 3876 O 369.52 -2.66434 -3.00626 0
M  V30 3877 N 367.726 -2.35219 -1.70646 0
M  V30 3878 H 367.273 -2.4431 -0.81673 0
M  V30 3879 H 367.231 -1.94294 -2.47178 0
M  V30 3880 N 371.003 -0.499398 -1.49478 0
M  V30 3881 C 371.936 0.326491 -2.25852 0
M  V30 3882 C 372.914 0.971776 -1.30366 0
M  V30 3883 O 374.098 1.00219 -1.59651 0
M  V30 3884 C 371.225 1.45969 -3.05632 0
M  V30 3885 C 370.271 0.928938 -4.16261 0
M  V30 3886 S 371.104 -0.179012 -5.35201 0
M  V30 3887 C 372.26 0.957389 -6.18534 0
M  V30 3888 H 372.493 -0.321746 -2.95554 0
M  V30 3889 H 370.026 -0.284674 -1.51753 0
M  V30 3890 H 371.984 2.109 -3.52181 0
M  V30 3891 H 370.645 2.07953 -2.35402 0
M  V30 3892 H 369.838 1.77813 -4.71592 0
M  V30 3893 H 369.44 0.356869 -3.72293 0
M  V30 3894 H 371.732 1.86296 -6.51383 0
M  V30 3895 H 372.675 0.442733 -7.06715 0
M  V30 3896 H 373.083 1.224 -5.5107 0
M  V30 3897 N 372.481 1.55866 -0.233164 0
M  V30 3898 C 373.758 1.90471 0.444988 0
M  V30 3899 C 374.138 1.15209 1.7689 0
M  V30 3900 O 373.486 0.265119 2.26957 0
M  V30 3901 C 373.696 3.4333 0.626559 0
M  V30 3902 C 375.044 4.14319 0.92871 0
M  V30 3903 O 376.068 3.48993 0.712926 0
M  V30 3904 O 374.927 5.29846 1.33887 0
M  V30 3905 H 372.021 0.792347 0.236885 0
M  V30 3906 H 374.567 1.67437 -0.276211 0
M  V30 3907 H 373.339 3.90095 -0.306822 0
M  V30 3908 H 372.962 3.72181 1.39881 0
M  V30 3909 N 373.959 -0.0401083 1.57549 0
M  V30 3910 C 374.889 -1.04384 2.08869 0
M  V30 3911 C 375.87 -1.38407 0.988817 0
M  V30 3912 O 377.055 -1.47483 1.26342 0
M  V30 3913 C 374.185 -2.34808 2.55895 0
M  V30 3914 C 373.139 -2.15057 3.70047 0
M  V30 3915 C 372.465 -3.51145 4.03239 0
M  V30 3916 C 373.765 -1.54576 4.98902 0
M  V30 3917 H 375.459 -0.616666 2.92981 0
M  V30 3918 H 373.005 -0.295184 1.40942 0
M  V30 3919 H 374.958 -3.05346 2.90417 0
M  V30 3920 H 373.682 -2.79565 1.68853 0
M  V30 3921 H 372.341 -1.46954 3.35857 0
M  V30 3922 H 371.989 -3.93529 3.13279 0
M  V30 3923 H 371.689 -3.38758 4.80122 0
M  V30 3924 H 373.213 -4.23062 4.40285 0
M  V30 3925 H 374.627 -2.15017 5.31451 0
M  V30 3926 H 373.024 -1.52796 5.80322 0
M  V30 3927 H 374.094 -0.51039 4.82206 0
M  V30 3928 N 375.437 -1.54477 -0.31217 0
M  V30 3929 C 376.853 -1.45442 -0.657185 0
M  V30 3930 C 377.053 -0.63653 -1.91182 0
M  V30 3931 O 376.109 -0.139815 -2.52113 0
M  V30 3932 C 377.422 -2.89287 -0.82058 0
M  V30 3933 C 378.97 -2.9926 -0.917188 0
M  V30 3934 C 379.445 -4.44279 -1.11267 0
M  V30 3935 N 380.936 -4.4794 -1.17914 0
M  V30 3936 C 381.671 -5.57318 -1.34848 0
M  V30 3937 N 381.167 -6.76642 -1.48752 0
M  V30 3938 N 382.96 -5.44986 -1.37647 0
M  V30 3939 H 375.111 -2.06129 0.512313 0
M  V30 3940 H 377.374 -0.933088 0.167485 0
M  V30 3941 H 377.08 -3.51687 0.0302604 0
M  V30 3942 H 376.954 -3.36061 -1.71298 0
M  V30 3943 H 379.341 -2.36981 -1.75852 0
M  V30 3944 H 379.422 -2.558 -0.00101257 0
M  V30 3945 H 379.066 -5.07149 -0.27614 0
M  V30 3946 H 378.996 -4.85359 -2.04289 0
M  V30 3947 H 381.487 -3.61969 -1.08567 0
M  V30 3948 H 381.8 -7.55758 -1.61397 0
M  V30 3949 H 380.145 -6.79529 -1.45828 0
M  V30 3950 H 383.336 -4.50715 -1.26388 0
M  V30 3951 H 383.509 -6.3028 -1.50501 0
M  V30 3952 N 376.915 0.57481 -1.46744 0
M  V30 3953 C 378.192 1.3352 -1.4294 0
M  V30 3954 C 378.572 2.10775 -0.117009 0
M  V30 3955 O 377.92 2.09966 0.901474 0
M  V30 3956 C 378.13 2.25456 -2.66403 0
M  V30 3957 C 379.478 2.87035 -3.12883 0
M  V30 3958 O 380.502 2.35766 -2.67007 0
M  V30 3959 O 379.361 3.80179 -3.92589 0
M  V30 3960 H 376.455 0.600318 -0.568812 0
M  V30 3961 H 379.001 0.595171 -1.58921 0
M  V30 3962 H 377.773 1.67851 -3.53471 0
M  V30 3963 H 377.396 3.06785 -2.52921 0
M  V30 3964 N 378.394 1.34581 0.820102 0
M  V30 3965 C 379.641 1.27096 1.57648 0
M  V30 3966 C 379.969 -0.158317 1.93855 0
M  V30 3967 O 379.224 -1.12028 1.60463 0
M  V30 3968 C 379.523 2.10997 2.8847 0
M  V30 3969 C 379.189 3.59966 2.71543 0
M  V30 3970 C 377.851 4.00575 2.66634 0
M  V30 3971 C 380.203 4.54548 2.55021 0
M  V30 3972 C 377.531 5.33953 2.43128 0
M  V30 3973 C 379.883 5.88109 2.33047 0
M  V30 3974 C 378.547 6.27878 2.26552 0
M  V30 3975 H 377.817 0.465078 0.576874 0
M  V30 3976 H 380.464 1.6635 0.948671 0
M  V30 3977 H 378.769 1.6458 3.55557 0
M  V30 3978 H 380.466 2.0255 3.46084 0
M  V30 3979 H 377.056 3.27733 2.76205 0
M  V30 3980 H 381.24 4.24069 2.57835 0
M  V30 3981 H 376.496 5.63781 2.3656 0
M  V30 3982 H 380.67 6.60985 2.19251 0
M  V30 3983 H 378.297 7.31162 2.081 0
M  V30 3984 N 379.872 -1.04064 1.18357 0
M  V30 3985 C 380.822 -2.10393 0.878561 0
M  V30 3986 C 381.806 -1.60183 -0.151713 0
M  V30 3987 O 382.998 -1.76923 0.0523303 0
M  V30 3988 C 380.127 -3.4089 0.406096 0
M  V30 3989 C 379.213 -3.97866 1.46844 0
M  V30 3990 N 379.604 -4.28657 2.68489 0
M  V30 3991 C 377.902 -4.2574 1.32896 0
M  V30 3992 C 378.603 -4.74253 3.36836 0
M  V30 3993 N 377.579 -4.75068 2.64219 0
M  V30 3994 H 381.381 -2.32076 1.80327 0
M  V30 3995 H 378.895 -1.21818 1.07397 0
M  V30 3996 H 380.892 -4.16557 0.169088 0
M  V30 3997 H 379.552 -3.20633 -0.512275 0
M  V30 3998 H 380.563 -4.18304 3.05356 0
M  V30 3999 H 377.24 -4.1481 0.473134 0
M  V30 4000 H 378.63 -5.07096 4.40798 0
M  V30 4001 N 381.35 -0.985608 -1.22978 0
M  V30 4002 C 382.297 -0.529825 -2.24636 0
M  V30 4003 C 383.267 0.434028 -1.60329 0
M  V30 4004 O 384.452 0.340414 -1.87739 0
M  V30 4005 C 381.592 0.156533 -3.44745 0
M  V30 4006 C 380.705 -0.848197 -4.23591 0
M  V30 4007 C 379.84 -0.136109 -5.31026 0
M  V30 4008 C 378.879 -1.1297 -6.01585 0
M  V30 4009 N 378.016 -0.446415 -7.00679 0
M  V30 4010 H 382.856 -1.40148 -2.62988 0
M  V30 4011 H 380.393 -0.702168 -1.29259 0
M  V30 4012 H 382.351 0.571324 -4.1327 0
M  V30 4013 H 380.981 0.992025 -3.07179 0
M  V30 4014 H 380.033 -1.38135 -3.54433 0
M  V30 4015 H 381.345 -1.60512 -4.72268 0
M  V30 4016 H 380.499 0.335784 -6.0577 0
M  V30 4017 H 379.238 0.653373 -4.83304 0
M  V30 4018 H 378.243 -1.6123 -5.25628 0
M  V30 4019 H 379.468 -1.91993 -6.51395 0
M  V30 4020 H 377.414 0.323763 -6.55201 0
M  V30 4021 H 377.331 -1.1419 -7.47326 0
M  V30 4022 H 378.599 0.00291697 -7.795 0
M  V30 4023 N 382.828 1.3818 -0.7579 0
M  V30 4024 C 384.058 2.04004 -0.326463 0
M  V30 4025 C 384.466 1.57286 1.05156 0
M  V30 4026 O 383.809 0.743144 1.67997 0
M  V30 4027 C 383.871 3.58444 -0.275402 0
M  V30 4028 C 383.535 4.28237 -1.59569 0
M  V30 4029 C 384.532 4.53312 -2.54566 0
M  V30 4030 C 382.217 4.66341 -1.86631 0
M  V30 4031 C 384.211 5.15531 -3.74842 0
M  V30 4032 C 381.898 5.28283 -3.0718 0
M  V30 4033 C 382.896 5.52814 -4.01106 0
M  V30 4034 O 382.584 6.13465 -5.19534 0
M  V30 4035 H 382.316 0.662026 -0.136739 0
M  V30 4036 H 384.87 1.7777 -1.02893 0
M  V30 4037 H 383.1 3.83667 0.483337 0
M  V30 4038 H 384.789 4.05701 0.127099 0
M  V30 4039 H 385.555 4.24299 -2.34936 0
M  V30 4040 H 381.434 4.46591 -1.14358 0
M  V30 4041 H 384.978 5.34594 -4.48168 0
M  V30 4042 H 380.875 5.56719 -3.26702 0
M  V30 4043 H 381.643 6.31951 -5.20173 0
M  V30 4044 N 384.306 0.507319 1.49211 0
M  V30 4045 C 385.239 -0.314509 2.26022 0
M  V30 4046 C 386.217 -0.964849 1.30879 0
M  V30 4047 O 387.401 -0.993707 1.6018 0
M  V30 4048 C 384.528 -1.44346 3.06402 0
M  V30 4049 C 383.574 -0.90685 4.16748 0
M  V30 4050 S 384.407 0.207392 5.35098 0
M  V30 4051 C 385.563 -0.924573 6.19033 0
M  V30 4052 H 385.796 0.337416 2.95379 0
M  V30 4053 H 383.329 0.292718 1.516 0
M  V30 4054 H 385.287 -2.09029 3.53295 0
M  V30 4055 H 383.948 -2.06702 2.36502 0
M  V30 4056 H 383.141 -1.75309 4.72528 0
M  V30 4057 H 382.743 -0.33712 3.72478 0
M  V30 4058 H 385.035 -1.82839 6.52362 0
M  V30 4059 H 385.978 -0.405248 7.06939 0
M  V30 4060 H 386.386 -1.19476 5.51712 0
M  V30 4061 N 385.784 -1.5574 0.241426 0
M  V30 4062 C 387.2 -1.59196 -0.113548 0
M  V30 4063 C 387.4 -1.25852 -1.57364 0
M  V30 4064 O 386.456 -1.00322 -2.31715 0
M  V30 4065 C 387.769 -2.99814 0.230695 0
M  V30 4066 C 389.317 -3.12513 0.174547 0
M  V30 4067 C 389.792 -4.55342 0.492744 0
M  V30 4068 N 391.283 -4.61076 0.443043 0
M  V30 4069 C 392.018 -5.6956 0.662484 0
M  V30 4070 N 391.514 -6.86328 0.944761 0
M  V30 4071 N 393.307 -5.58957 0.593564 0
M  V30 4072 H 385.458 -1.75685 1.19368 0
M  V30 4073 H 387.721 -0.81756 0.479896 0
M  V30 4074 H 387.427 -3.28932 1.24485 0
M  V30 4075 H 387.301 -3.74568 -0.444833 0
M  V30 4076 H 389.688 -2.83179 -0.830277 0
M  V30 4077 H 389.769 -2.40045 0.883845 0
M  V30 4078 H 389.413 -4.85396 1.4951 0
M  V30 4079 H 389.343 -5.26062 -0.23797 0
M  V30 4080 H 391.834 -3.77179 0.233374 0
M  V30 4081 H 392.147 -7.64935 1.09977 0
M  V30 4082 H 390.492 -6.88025 0.982175 0
M  V30 4083 H 393.683 -4.66611 0.373123 0
M  V30 4084 H 393.856 -6.43433 0.767981 0
M  V30 4085 N 387.262 0.0317525 -1.57568 0
M  V30 4086 C 388.487 0.738664 -1.938 0
M  V30 4087 C 388.912 1.68242 -0.841208 0
M  V30 4088 O 388.27 1.80157 0.203267 0
M  V30 4089 C 388.318 1.47417 -3.29091 0
M  V30 4090 O 387.422 2.5872 -3.2115 0
M  V30 4091 H 386.763 0.198856 -0.633524 0
M  V30 4092 H 389.293 -0.0119713 -2.04596 0
M  V30 4093 H 389.303 1.84468 -3.63917 0
M  V30 4094 H 387.978 0.781988 -4.08482 0
M  V30 4095 H 386.555 2.24231 -2.97951 0
M  V30 4096 N 388.74 1.54641 0.303973 0
M  V30 4097 C 389.69 1.8177 1.37636 0
M  V30 4098 C 390.674 0.674697 1.46071 0
M  V30 4099 O 391.866 0.935251 1.50273 0
M  V30 4100 C 388.995 2.06584 2.74186 0
M  V30 4101 C 388.081 3.2706 2.69986 0
M  V30 4102 N 388.472 4.47682 2.35402 0
M  V30 4103 C 386.77 3.29028 3.01092 0
M  V30 4104 C 387.471 5.29689 2.40426 0
M  V30 4105 N 386.447 4.67339 2.7766 0
M  V30 4106 H 390.249 2.72596 1.09857 0
M  V30 4107 H 387.763 1.541 0.51254 0
M  V30 4108 H 389.76 2.24166 3.51504 0
M  V30 4109 H 388.42 1.17024 3.02879 0
M  V30 4110 H 389.431 4.74336 2.07908 0
M  V30 4111 H 386.108 2.49565 3.34699 0
M  V30 4112 H 387.498 6.3606 2.16512 0
M  V30 4113 N 390.218 -0.567019 1.47046 0
M  V30 4114 C 391.165 -1.67489 1.58796 0
M  V30 4115 C 392.135 -1.60399 0.43144 0
M  V30 4116 O 393.32 -1.79378 0.650233 0
M  V30 4117 C 390.46 -3.05821 1.59899 0
M  V30 4118 C 389.573 -3.2342 2.86397 0
M  V30 4119 C 388.708 -4.52093 2.789 0
M  V30 4120 C 387.747 -4.6309 4.00267 0
M  V30 4121 N 386.884 -5.83106 3.91064 0
M  V30 4122 H 391.724 -1.56785 2.53422 0
M  V30 4123 H 389.261 -0.763896 1.2571 0
M  V30 4124 H 391.219 -3.8591 1.58522 0
M  V30 4125 H 389.849 -3.15384 0.687929 0
M  V30 4126 H 388.901 -2.3683 2.97684 0
M  V30 4127 H 390.213 -3.27412 3.76301 0
M  V30 4128 H 389.367 -5.4043 2.75718 0
M  V30 4129 H 388.106 -4.50565 1.86662 0
M  V30 4130 H 387.111 -3.73168 4.03765 0
M  V30 4131 H 388.336 -4.66386 4.93621 0
M  V30 4132 H 386.282 -5.82546 3.01623 0
M  V30 4133 H 386.199 -5.88434 4.74638 0
M  V30 4134 H 387.467 -6.73831 3.91882 0
M  V30 4135 N 391.696 -1.35014 -0.812953 0
M  V30 4136 C 392.659 -1.27292 -1.90602 0
M  V30 4137 C 393.659 -0.185817 -1.59723 0
M  V30 4138 O 394.849 -0.439102 -1.68575 0
M  V30 4139 C 391.981 -0.967676 -3.26877 0
M  V30 4140 H 393.174 -2.24479 -1.9887 0
M  V30 4141 H 390.727 -1.19446 -1.00808 0
M  V30 4142 H 391.462 0.0005954 -3.243 0
M  V30 4143 H 391.247 -1.75412 -3.50675 0
M  V30 4144 H 392.737 -0.939085 -4.06904 0
M  V30 4145 N 393.175 1.03435 -1.18907 0
M  V30 4146 C 394.085 2.15075 -0.937015 0
M  V30 4147 C 395.101 1.73706 0.101085 0
M  V30 4148 O 396.277 2.01232 -0.0822948 0
M  V30 4149 C 393.342 3.43458 -0.473057 0
M  V30 4150 C 392.403 3.99172 -1.57989 0
M  V30 4151 C 391.636 5.21427 -1.13797 0
M  V30 4152 O 391.859 5.704 0.000725941 0
M  V30 4153 O 390.793 5.69837 -1.9383 0
M  V30 4154 H 394.619 2.39198 -1.87131 0
M  V30 4155 H 392.204 1.13506 -0.971427 0
M  V30 4156 H 394.086 4.20811 -0.222702 0
M  V30 4157 H 392.761 3.20793 0.432869 0
M  V30 4158 H 391.668 3.23178 -1.88433 0
M  V30 4159 H 393.001 4.2619 -2.46217 0
M  V30 4160 N 394.653 0.992116 1.22453 0
M  V30 4161 C 395.878 0.685644 1.95739 0
M  V30 4162 C 396.303 -0.743 1.72804 0
M  V30 4163 O 395.661 -1.50778 1.00676 0
M  V30 4164 C 395.709 0.996293 3.46564 0
M  V30 4165 O 394.813 0.0945512 4.12292 0
M  V30 4166 H 394.154 0.256694 0.612376 0
M  V30 4167 H 396.684 1.32888 1.5557 0
M  V30 4168 H 396.694 0.93781 3.97076 0
M  V30 4169 H 395.369 2.03733 3.62582 0
M  V30 4170 H 393.946 0.208451 3.72317 0
M  V30 4171 N 396.131 -1.37776 0.765217 0
M  V30 4172 C 397.356 -2.04651 0.336537 0
M  V30 4173 C 397.781 -1.57337 -1.03086 0
M  V30 4174 O 397.139 -0.730621 -1.65927 0
M  V30 4175 C 397.187 -3.58577 0.381468 0
M  V30 4176 O 396.291 -4.07706 -0.62042 0
M  V30 4177 H 395.632 -0.64756 0.146838 0
M  V30 4178 H 398.162 -1.76221 1.03959 0
M  V30 4179 H 398.172 -4.07314 0.236448 0
M  V30 4180 H 396.847 -3.9237 1.37907 0
M  V30 4181 H 395.424 -3.70306 -0.439056 0
M  V30 4182 N 397.609 -0.515225 -1.4894 0
M  V30 4183 C 398.519 0.259774 -2.33157 0
M  V30 4184 C 399.535 0.953501 -1.45548 0
M  V30 4185 O 400.711 0.931735 -1.78552 0
M  V30 4186 C 397.776 1.30193 -3.21326 0
M  V30 4187 C 396.837 0.620129 -4.24797 0
M  V30 4188 C 396.07 1.61263 -5.08753 0
M  V30 4189 O 396.293 2.84389 -4.94448 0
M  V30 4190 O 395.227 1.16013 -5.90614 0
M  V30 4191 H 399.053 -0.429932 -3.00641 0
M  V30 4192 H 396.638 -0.276346 -1.46822 0
M  V30 4193 H 398.52 1.90455 -3.75905 0
M  V30 4194 H 397.195 1.97431 -2.56521 0
M  V30 4195 H 396.102 -0.0226019 -3.74093 0
M  V30 4196 H 397.435 -0.0100493 -4.92199 0
M  V30 4197 N 399.087 1.5561 -0.249682 0
M  V30 4198 C 400.017 2.24477 0.642826 0
M  V30 4199 C 400.998 1.22601 1.17911 0
M  V30 4200 O 402.183 1.5126 1.21795 0
M  V30 4201 C 399.313 2.94638 1.83863 0
M  V30 4202 C 398.267 4.03227 1.435 0
M  V30 4203 C 397.593 4.60828 2.71186 0
M  V30 4204 C 398.893 5.18796 0.604002 0
M  V30 4205 H 400.587 2.99321 0.0685625 0
M  V30 4206 H 398.133 1.43965 0.0315363 0
M  V30 4207 H 400.086 3.41517 2.46868 0
M  V30 4208 H 398.81 2.17287 2.43832 0
M  V30 4209 H 397.469 3.57121 0.828275 0
M  V30 4210 H 397.117 3.80174 3.29358 0
M  V30 4211 H 396.817 5.34132 2.44901 0
M  V30 4212 H 398.341 5.10442 3.35084 0
M  V30 4213 H 399.755 5.61883 1.13842 0
M  V30 4214 H 398.152 5.98506 0.437097 0
M  V30 4215 H 399.222 4.83384 -0.383147 0
M  V30 4216 N 400.565 -0.0233959 1.57583 0
M  V30 4217 C 401.811 -0.714119 1.89811 0
M  V30 4218 C 402.144 -1.74702 0.848113 0
M  V30 4219 O 401.419 -1.94023 -0.136135 0
M  V30 4220 C 401.702 -1.37853 3.32669 0
M  V30 4221 C 401.555 -0.358764 4.48367 0
M  V30 4222 C 402.874 -2.31101 3.7454 0
M  V30 4223 H 399.993 -0.25814 0.690314 0
M  V30 4224 H 402.635 0.0230927 1.89986 0
M  V30 4225 H 400.785 -2.00689 3.3265 0
M  V30 4226 H 402.457 0.268115 4.6052 0
M  V30 4227 H 400.7 0.321387 4.32608 0
M  V30 4228 H 401.371 -0.862242 5.45224 0
M  V30 4229 H 403.847 -1.78304 3.75961 0
M  V30 4230 H 402.723 -2.74567 4.75294 0
M  V30 4231 H 402.984 -3.18018 3.0711 0
M  V30 4232 N 402.043 -1.548 -0.295768 0
M  V30 4233 C 403.459 -1.4613 -0.641722 0
M  V30 4234 C 403.659 -0.656771 -1.90496 0
M  V30 4235 O 402.715 -0.166547 -2.5195 0
M  V30 4236 C 404.028 -2.90141 -0.789852 0
M  V30 4237 C 405.576 -3.00216 -0.885396 0
M  V30 4238 C 406.051 -4.45434 -1.06548 0
M  V30 4239 N 407.542 -4.49166 -1.13156 0
M  V30 4240 C 408.277 -5.58717 -1.28929 0
M  V30 4241 N 407.773 -6.78182 -1.41567 0
M  V30 4242 N 409.566 -5.46415 -1.31859 0
M  V30 4243 H 401.717 -2.05574 0.534147 0
M  V30 4244 H 403.98 -0.931259 0.177372 0
M  V30 4245 H 403.686 -3.51635 0.0675598 0
M  V30 4246 H 403.56 -3.37859 -1.67724 0
M  V30 4247 H 405.947 -2.38833 -1.73329 0
M  V30 4248 H 406.028 -2.55787 0.0261185 0
M  V30 4249 H 405.672 -5.07413 -0.222335 0
M  V30 4250 H 405.602 -4.87499 -1.9913 0
M  V30 4251 H 408.093 -3.631 -1.04721 0
M  V30 4252 H 408.406 -7.57428 -1.53372 0
M  V30 4253 H 406.751 -6.81037 -1.38613 0
M  V30 4254 H 409.942 -4.5203 -1.21601 0
M  V30 4255 H 410.115 -6.31841 -1.43808 0
M  V30 4256 N 403.521 0.559213 -1.47345 0
M  V30 4257 C 404.469 1.68747 -1.60085 0
M  V30 4258 C 405.463 1.628 -0.46825 0
M  V30 4259 O 406.669 1.68009 -0.645977 0
M  V30 4260 H 403.044 0.558329 -0.503759 0
M  V30 4261 H 405.015 1.55138 -2.54902 0
M  V30 4262 C 403.764 3.07103 -1.63042 0
M  V30 4263 H 403.087 3.12361 -2.49541 0
M  V30 4264 H 404.527 3.85743 -1.76006 0
M  V30 4265 C 402.986 3.34935 -0.363357 0
M  V30 4266 O 403.516 3.98102 0.536416 0
M  V30 4267 N 401.722 2.89574 -0.244 0
M  V30 4268 H 401.269 2.38348 -0.977133 0
M  V30 4269 H 401.227 3.08566 0.602836 0
M  V30 4270 N 404.999 1.35443 0.805782 0
M  V30 4271 C 406.224 1.32037 1.59941 0
M  V30 4272 C 406.649 -0.0994215 1.87837 0
M  V30 4273 O 406.007 -1.06648 1.46615 0
M  V30 4274 C 406.055 2.13354 2.90711 0
M  V30 4275 O 405.159 1.5148 3.83572 0
M  V30 4276 H 404.5 0.452666 0.485787 0
M  V30 4277 H 407.03 1.78496 1.00002 0
M  V30 4278 H 407.04 2.25338 3.40128 0
M  V30 4279 H 405.715 3.16572 2.69732 0
M  V30 4280 H 404.292 1.4834 3.42125 0
M  V30 4281 N 406.477 -1.02803 1.19454 0
M  V30 4282 C 407.427 -2.0945 0.900827 0
M  V30 4283 C 408.411 -1.60335 -0.134715 0
M  V30 4284 O 409.603 -1.76857 0.0710924 0
M  V30 4285 C 406.732 -3.4044 0.442229 0
M  V30 4286 C 405.818 -3.96286 1.51056 0
M  V30 4287 N 406.209 -4.25785 2.73021 0
M  V30 4288 C 404.507 -4.24307 1.37404 0
M  V30 4289 C 405.208 -4.70654 3.41848 0
M  V30 4290 N 404.184 -4.72238 2.69243 0
M  V30 4291 H 407.986 -2.3015 1.82779 0
M  V30 4292 H 405.5 -1.20672 1.08683 0
M  V30 4293 H 407.497 -4.16354 0.21326 0
M  V30 4294 H 406.157 -3.21159 -0.478238 0
M  V30 4295 H 407.168 -4.15041 3.09776 0
M  V30 4296 H 403.845 -4.14285 0.517103 0
M  V30 4297 H 405.235 -5.02392 4.46152 0
M  V30 4298 N 407.956 -0.998596 -1.21925 0
M  V30 4299 C 408.906 -0.524743 -2.21879 0
M  V30 4300 C 409.89 0.41017 -1.55584 0
M  V30 4301 O 411.082 0.236063 -1.75419 0
M  V30 4302 C 408.211 0.153636 -3.42956 0
M  V30 4303 C 407.297 -0.801918 -4.16449 0
M  V30 4304 N 407.688 -1.95211 -4.66611 0
M  V30 4305 C 405.986 -0.618972 -4.41684 0
M  V30 4306 C 406.687 -2.55234 -5.22715 0
M  V30 4307 N 405.663 -1.83451 -5.1171 0
M  V30 4308 H 409.465 -1.40189 -2.58311 0
M  V30 4309 H 406.979 -0.86159 -1.3766 0
M  V30 4310 H 408.976 0.510534 -4.13762 0
M  V30 4311 H 407.636 1.02684 -3.08036 0
M  V30 4312 H 408.647 -2.33271 -4.62391 0
M  V30 4313 H 405.324 0.207694 -4.16983 0
M  V30 4314 H 406.714 -3.52471 -5.72026 0
M  V30 4315 N 409.434 1.37368 -0.772513 0
M  V30 4316 C 410.662 2.03942 -0.348588 0
M  V30 4317 C 411.077 1.58264 1.02947 0
M  V30 4318 O 410.434 0.764246 1.65727 0
M  V30 4319 C 410.485 3.5946 -0.38351 0
M  V30 4320 O 410.206 4.03468 -1.70721 0
M  V30 4321 C 411.707 4.4327 0.0519152 0
M  V30 4322 H 408.927 0.654931 -0.145966 0
M  V30 4323 H 411.471 1.75686 -1.04665 0
M  V30 4324 H 409.626 3.86486 0.265978 0
M  V30 4325 H 410.04 4.97991 -1.64636 0
M  V30 4326 H 411.514 5.51995 -0.0236733 0
M  V30 4327 H 411.991 4.2514 1.10238 0
M  V30 4328 H 412.597 4.21471 -0.569415 0
M  V30 4329 N 410.912 0.523116 1.48665 0
M  V30 4330 C 412.158 -0.00540031 2.03399 0
M  V30 4331 C 412.513 -1.3264 1.39372 0
M  V30 4332 O 411.806 -1.84184 0.527916 0
M  V30 4333 C 412 -0.191671 3.56886 0
M  V30 4334 C 411.829 1.10972 4.35793 0
M  V30 4335 C 410.599 1.66769 4.76987 0
M  V30 4336 C 412.797 2.01861 4.73029 0
M  V30 4337 N 410.779 2.91268 5.40404 0
M  V30 4338 C 412.15 3.10937 5.36394 0
M  V30 4339 C 414.205 2.02271 4.54962 0
M  V30 4340 C 412.908 4.20478 5.83601 0
M  V30 4341 C 414.934 3.10802 5.03146 0
M  V30 4342 C 414.296 4.18597 5.6653 0
M  V30 4343 H 410.395 0.0393531 0.781009 0
M  V30 4344 H 412.979 0.702876 1.8157 0
M  V30 4345 H 411.15 -0.869025 3.78553 0
M  V30 4346 H 412.882 -0.719177 3.98259 0
M  V30 4347 H 409.637 1.20996 4.57883 0
M  V30 4348 H 410.061 3.54635 5.76683 0
M  V30 4349 H 414.703 1.2023 4.05345 0
M  V30 4350 H 412.421 5.03303 6.32228 0
M  V30 4351 H 416.007 3.12166 4.90962 0
M  V30 4352 H 414.887 5.01193 6.03138 0
M  V30 4353 N 412.39 -1.55475 0.257931 0
M  V30 4354 C 413.32 -2.24815 -0.630912 0
M  V30 4355 C 414.301 -1.23224 -1.17259 0
M  V30 4356 O 415.486 -1.51904 -1.20991 0
M  V30 4357 C 412.616 -2.95609 -1.82298 0
M  V30 4358 C 411.57 -4.03982 -1.41359 0
M  V30 4359 C 410.896 -4.6226 -2.68738 0
M  V30 4360 C 412.196 -5.19109 -0.57648 0
M  V30 4361 H 413.89 -2.99354 -0.0526878 0
M  V30 4362 H 411.436 -1.4398 -0.023901 0
M  V30 4363 H 413.389 -3.42822 -2.45054 0
M  V30 4364 H 412.113 -2.18577 -2.42676 0
M  V30 4365 H 410.772 -3.57555 -0.809324 0
M  V30 4366 H 410.42 -3.81915 -3.27338 0
M  V30 4367 H 410.12 -5.35424 -2.42065 0
M  V30 4368 H 411.644 -5.12212 -3.32372 0
M  V30 4369 H 413.058 -5.62479 -1.10861 0
M  V30 4370 H 411.455 -5.98729 -0.405351 0
M  V30 4371 H 412.525 -4.83174 0.408776 0
M  V30 4372 N 413.868 0.0150385 -1.57593 0
M  V30 4373 C 415.098 0.713359 -1.93894 0
M  V30 4374 C 415.506 1.68663 -0.857289 0
M  V30 4375 O 414.849 1.82876 0.173788 0
M  V30 4376 C 414.911 1.51348 -3.26089 0
M  V30 4377 C 414.575 0.703451 -4.51554 0
M  V30 4378 C 415.572 -0.00237924 -5.199 0
M  V30 4379 C 413.257 0.653854 -4.98026 0
M  V30 4380 C 415.251 -0.746955 -6.33008 0
M  V30 4381 C 412.938 -0.0944578 -6.11027 0
M  V30 4382 C 413.936 -0.793609 -6.78374 0
M  V30 4383 O 413.624 -1.52974 -7.89211 0
M  V30 4384 H 413.356 0.204637 -0.644282 0
M  V30 4385 H 415.91 -0.0276411 -2.05381 0
M  V30 4386 H 414.14 2.29862 -3.10967 0
M  V30 4387 H 415.829 2.09572 -3.47612 0
M  V30 4388 H 416.595 0.0268803 -4.84993 0
M  V30 4389 H 412.474 1.18756 -4.45441 0
M  V30 4390 H 416.018 -1.2932 -6.85509 0
M  V30 4391 H 411.915 -0.125591 -6.45378 0
M  V30 4392 H 412.683 -1.44488 -8.05646 0
M  V30 4393 N 415.346 1.54954 0.287554 0
M  V30 4394 C 416.278 1.83224 1.37701 0
M  V30 4395 C 417.291 0.715898 1.46215 0
M  V30 4396 O 418.48 0.993565 1.48292 0
M  V30 4397 C 415.58 1.96723 2.75959 0
M  V30 4398 C 414.753 3.27253 2.90215 0
M  V30 4399 C 413.812 3.30998 4.09056 0
M  V30 4400 O 412.838 4.04457 4.00503 0
M  V30 4401 N 414.04 2.57353 5.20336 0
M  V30 4402 H 416.805 2.77254 1.138 0
M  V30 4403 H 414.366 1.54694 0.477652 0
M  V30 4404 H 416.358 1.96615 3.5373 0
M  V30 4405 H 414.928 1.09626 2.92747 0
M  V30 4406 H 414.148 3.40022 1.99447 0
M  V30 4407 H 415.436 4.13365 2.96659 0
M  V30 4408 H 414.834 1.97327 5.30169 0
M  V30 4409 H 413.391 2.62984 5.96391 0
M  V30 4410 N 416.824 -0.551391 1.4764 0
M  V30 4411 C 418.072 -1.30572 1.54258 0
M  V30 4412 C 418.393 -1.93877 0.208963 0
M  V30 4413 O 417.663 -1.80234 -0.767619 0
M  V30 4414 H 416.243 -0.484894 0.568231 0
M  V30 4415 H 418.905 -0.643402 1.83974 0
M  V30 4416 H 418.001 -2.09621 2.31226 0
M  V30 4417 N 418.302 -1.35869 -0.798587 0
M  V30 4418 C 419.212 -1.31578 -1.94228 0
M  V30 4419 C 420.228 -0.21939 -1.72611 0
M  V30 4420 O 421.404 -0.450167 -1.96305 0
M  V30 4421 C 418.469 -1.09528 -3.28944 0
M  V30 4422 C 417.53 -2.28556 -3.63402 0
M  V30 4423 C 416.763 -2.07549 -4.9169 0
M  V30 4424 O 416.986 -1.046 -5.60727 0
M  V30 4425 O 415.92 -2.95106 -5.24591 0
M  V30 4426 H 419.746 -2.27847 -2.00796 0
M  V30 4427 H 417.331 -1.16322 -0.937526 0
M  V30 4428 H 419.213 -0.991127 -4.09579 0
M  V30 4429 H 417.888 -0.16315 -3.23289 0
M  V30 4430 H 416.795 -2.44538 -2.83112 0
M  V30 4431 H 418.128 -3.20244 -3.73771 0
M  V30 4432 N 419.78 1.02168 -1.19998 0
M  V30 4433 C 421.028 1.75338 -1.00504 0
M  V30 4434 C 421.349 1.89387 0.464506 0
M  V30 4435 O 420.619 1.43268 1.33608 0
M  V30 4436 H 419.199 0.649564 -0.368885 0
M  V30 4437 H 421.861 1.23205 -1.51018 0
M  V30 4438 H 420.957 2.75892 -1.45912 0
M  V30 4439 N 421.258 1.00505 1.21394 0
M  V30 4440 C 422.221 0.570459 2.21987 0
M  V30 4441 C 423.221 -0.353211 1.56873 0
M  V30 4442 O 424.411 -0.14349 1.73608 0
M  V30 4443 C 421.543 -0.168555 3.40483 0
M  V30 4444 H 422.736 1.46021 2.6195 0
M  V30 4445 H 420.289 0.793565 1.34656 0
M  V30 4446 H 421.024 -1.07374 3.06009 0
M  V30 4447 H 420.809 0.494823 3.88965 0
M  V30 4448 H 422.299 -0.460362 4.15055 0
M  V30 4449 N 422.737 -1.36956 0.779787 0
M  V30 4450 C 423.687 -2.27539 0.144892 0
M  V30 4451 C 424.671 -1.46493 -0.665488 0
M  V30 4452 O 425.863 -1.68968 -0.527141 0
M  V30 4453 C 422.992 -3.35512 -0.727082 0
M  V30 4454 C 422.078 -4.24001 0.0915642 0
M  V30 4455 N 422.469 -4.92757 1.14125 0
M  V30 4456 C 420.767 -4.45807 -0.131141 0
M  V30 4457 C 421.468 -5.58138 1.6388 0
M  V30 4458 N 420.444 -5.35241 0.94962 0
M  V30 4459 H 424.246 -2.78176 0.948446 0
M  V30 4460 H 421.76 -1.50169 0.618315 0
M  V30 4461 H 423.757 -3.99324 -1.19776 0
M  V30 4462 H 422.417 -2.86431 -1.52929 0
M  V30 4463 H 423.428 -4.94984 1.52353 0
M  V30 4464 H 420.105 -4.07582 -0.904621 0
M  V30 4465 H 421.495 -6.23071 2.51461 0
M  V30 4466 N 424.215 -0.530993 -1.48385 0
M  V30 4467 C 425.165 0.251092 -2.26613 0
M  V30 4468 C 426.149 0.908977 -1.32765 0
M  V30 4469 O 427.341 0.811616 -1.57295 0
M  V30 4470 C 424.47 1.29677 -3.17866 0
M  V30 4471 C 423.556 0.643627 -4.19188 0
M  V30 4472 N 423.947 -0.271223 -5.05072 0
M  V30 4473 C 422.245 0.900711 -4.3681 0
M  V30 4474 C 422.946 -0.648109 -5.78078 0
M  V30 4475 N 421.922 -0.00895987 -5.43599 0
M  V30 4476 H 425.724 -0.452702 -2.90393 0
M  V30 4477 H 423.238 -0.349091 -1.58604 0
M  V30 4478 H 425.235 1.87079 -3.72568 0
M  V30 4479 H 423.895 2.00193 -2.55642 0
M  V30 4480 H 424.906 -0.643883 -5.13882 0
M  V30 4481 H 421.583 1.59636 -3.85775 0
M  V30 4482 H 422.973 -1.39833 -6.57188 0
M  V30 4483 N 425.693 1.55336 -0.266172 0
M  V30 4484 C 426.942 1.98574 0.353749 0
M  V30 4485 C 427.255 1.15789 1.57646 0
M  V30 4486 O 428.461 1.49129 2.26876 0
M  V30 4487 C 426.917 3.53403 0.680747 0
M  V30 4488 C 426.525 4.44953 -0.52165 0
M  V30 4489 C 428.269 4.05251 1.26379 0
M  V30 4490 C 426.176 5.91156 -0.169736 0
M  V30 4491 H 425.106 0.741643 0.135949 0
M  V30 4492 H 427.757 1.79743 -0.369421 0
M  V30 4493 H 426.139 3.68001 1.46257 0
M  V30 4494 H 427.313 4.42121 -1.29869 0
M  V30 4495 H 425.628 4.03691 -1.02093 0
M  V30 4496 H 428.225 5.12021 1.54074 0
M  V30 4497 H 428.568 3.53749 2.19471 0
M  V30 4498 H 429.101 3.94057 0.544447 0
M  V30 4499 H 425.84 6.46736 -1.0683 0
M  V30 4500 H 425.36 5.97079 0.570717 0
M  V30 4501 H 427.039 6.4655 0.241245 0
M  V30 4502 N 427.171 -0.0066808 1.57599 0
M  V30 4503 C 428.104 -1.03397 2.03431 0
M  V30 4504 C 429.082 -1.33872 0.922877 0
M  V30 4505 O 430.266 -1.4615 1.19048 0
M  V30 4506 C 427.393 -2.36325 2.42628 0
M  V30 4507 C 426.439 -2.21557 3.64438 0
M  V30 4508 S 427.272 -1.54789 5.12641 0
M  V30 4509 C 428.428 -2.8916 5.55101 0
M  V30 4510 H 428.661 -0.643687 2.90248 0
M  V30 4511 H 426.194 -0.217349 1.52863 0
M  V30 4512 H 428.152 -3.12759 2.65879 0
M  V30 4513 H 426.813 -2.72495 1.56222 0
M  V30 4514 H 426.006 -3.1974 3.89592 0
M  V30 4515 H 425.608 -1.53267 3.41153 0
M  V30 4516 H 427.9 -3.8547 5.57153 0
M  V30 4517 H 428.843 -2.68713 6.55133 0
M  V30 4518 H 429.251 -2.92762 4.82649 0
M  V30 4519 N 428.649 -1.55105 -0.279332 0
M  V30 4520 C 430.065 -1.46803 -0.626187 0
M  V30 4521 C 430.265 -0.676939 -1.89789 0
M  V30 4522 O 429.321 -0.19326 -2.51759 0
M  V30 4523 C 430.634 -2.90962 -0.759034 0
M  V30 4524 C 432.182 -3.01138 -0.853504 0
M  V30 4525 C 432.657 -4.46539 -1.01818 0
M  V30 4526 N 434.148 -4.50341 -1.08386 0
M  V30 4527 C 434.883 -5.60053 -1.22996 0
M  V30 4528 N 434.379 -6.79645 -1.34366 0
M  V30 4529 N 436.172 -5.47783 -1.26056 0
M  V30 4530 H 428.323 -2.04996 0.555921 0
M  V30 4531 H 430.586 -0.929325 0.187239 0
M  V30 4532 H 430.292 -3.51544 0.104852 0
M  V30 4533 H 430.166 -3.39619 -1.64131 0
M  V30 4534 H 432.553 -2.40658 -1.70786 0
M  V30 4535 H 432.634 -2.55745 0.0532466 0
M  V30 4536 H 432.278 -5.0762 -0.168504 0
M  V30 4537 H 432.208 -4.89583 -1.93948 0
M  V30 4538 H 434.699 -3.64191 -1.00864 0
M  V30 4539 H 435.012 -7.59012 -1.4533 0
M  V30 4540 H 433.357 -6.82469 -1.31382 0
M  V30 4541 H 436.548 -4.53294 -1.168 0
M  V30 4542 H 436.721 -6.33331 -1.37098 0
M  V30 4543 N 430.127 0.543554 -1.4793 0
M  V30 4544 C 431.09 1.63156 -1.60975 0
M  V30 4545 C 432.09 1.53346 -0.483899 0
M  V30 4546 O 433.28 1.5726 -0.749339 0
M  V30 4547 C 430.412 3.02743 -1.56716 0
M  V30 4548 H 431.605 1.52934 -2.57975 0
M  V30 4549 H 429.158 0.764557 -1.36324 0
M  V30 4550 H 429.893 3.18484 -0.611418 0
M  V30 4551 H 429.678 3.11272 -2.38438 0
M  V30 4552 H 431.168 3.81871 -1.6901 0
M  V30 4553 N 431.605 1.3629 0.791371 0
M  V30 4554 C 432.854 1.29742 1.54434 0
M  V30 4555 C 433.167 -0.121729 1.95221 0
M  V30 4556 O 434.373 -0.309579 2.69729 0
M  V30 4557 C 432.829 2.27623 2.78776 0
M  V30 4558 C 432.437 3.74963 2.45166 0
M  V30 4559 C 434.181 2.30047 3.56761 0
M  V30 4560 C 432.088 4.64626 3.65891 0
M  V30 4561 H 431.018 0.482113 0.579727 0
M  V30 4562 H 433.669 1.61642 0.868565 0
M  V30 4563 H 432.051 1.88714 3.48142 0
M  V30 4564 H 433.225 4.22596 1.83709 0
M  V30 4565 H 431.54 3.75295 1.80396 0
M  V30 4566 H 434.137 2.94247 4.46456 0
M  V30 4567 H 434.48 1.30846 3.95203 0
M  V30 4568 H 435.013 2.67563 2.94372 0
M  V30 4569 H 431.752 5.64883 3.32547 0
M  V30 4570 H 431.272 4.2171 4.26521 0
M  V30 4571 H 432.951 4.80801 4.32943 0
M  V30 4572 N 433.083 -1.0153 1.20538 0
M  V30 4573 C 434.499 -1.27461 0.96051 0
M  V30 4574 C 434.699 -1.98273 -0.359193 0
M  V30 4575 O 433.755 -2.27886 -1.0874 0
M  V30 4576 C 435.068 -2.10837 2.14402 0
M  V30 4577 C 436.616 -2.24099 2.18515 0
M  V30 4578 C 437.091 -3.10852 3.36355 0
M  V30 4579 N 438.582 -3.18441 3.36377 0
M  V30 4580 C 439.317 -3.85795 4.24205 0
M  V30 4581 N 438.813 -4.55264 5.22213 0
M  V30 4582 N 440.606 -3.82331 4.12043 0
M  V30 4583 H 432.757 -0.539907 2.05423 0
M  V30 4584 H 435.02 -0.30092 0.898972 0
M  V30 4585 H 434.726 -1.66144 3.09983 0
M  V30 4586 H 434.6 -3.11576 2.12604 0
M  V30 4587 H 436.987 -2.68016 1.23497 0
M  V30 4588 H 437.068 -1.22865 2.24361 0
M  V30 4589 H 436.712 -2.6764 4.31661 0
M  V30 4590 H 436.642 -4.12177 3.27746 0
M  V30 4591 H 439.133 -2.68978 2.65442 0
M  V30 4592 H 439.446 -5.04331 5.85551 0
M  V30 4593 H 437.791 -4.54085 5.26148 0
M  V30 4594 H 440.982 -3.27207 3.34743 0
M  V30 4595 H 441.155 -4.34547 4.807 0
M  V30 4596 N 434.561 -1.01147 -1.20859 0
M  V30 4597 C 435.493 -0.535546 -2.22855 0
M  V30 4598 C 436.506 0.379323 -1.58319 0
M  V30 4599 O 437.695 0.178489 -1.77605 0
M  V30 4600 C 434.795 0.240962 -3.38042 0
M  V30 4601 C 433.968 -0.674562 -4.32167 0
M  V30 4602 C 433.027 0.053467 -5.26173 0
M  V30 4603 O 432.053 -0.567339 -5.66366 0
M  V30 4604 N 433.255 1.32997 -5.65059 0
M  V30 4605 H 436.02 -1.41268 -2.64317 0
M  V30 4606 H 433.581 -0.888386 -1.35349 0
M  V30 4607 H 435.573 0.737115 -3.97931 0
M  V30 4608 H 434.143 1.01935 -2.95513 0
M  V30 4609 H 433.363 -1.35111 -3.70322 0
M  V30 4610 H 434.651 -1.2974 -4.91981 0
M  V30 4611 H 434.049 1.85536 -5.34409 0
M  V30 4612 H 432.606 1.77095 -6.2728 0
M  V30 4613 N 436.039 1.36541 -0.78704 0
M  V30 4614 C 437.455 1.52571 -0.46844 0
M  V30 4615 C 437.655 1.7415 1.01361 0
M  V30 4616 O 436.711 1.77163 1.79915 0
M  V30 4617 C 438.024 2.71299 -1.29682 0
M  V30 4618 C 439.572 2.85169 -1.29027 0
M  V30 4619 C 440.047 4.06898 -2.10233 0
M  V30 4620 N 441.538 4.1404 -2.07666 0
M  V30 4621 C 442.273 5.07301 -2.67271 0
M  V30 4622 N 441.769 6.06021 -3.35724 0
M  V30 4623 N 443.562 4.99898 -2.57018 0
M  V30 4624 H 435.713 1.20788 -1.74711 0
M  V30 4625 H 437.976 0.589364 -0.742532 0
M  V30 4626 H 437.682 2.61868 -2.34773 0
M  V30 4627 H 437.556 3.6539 -0.936479 0
M  V30 4628 H 439.943 2.94062 -0.247284 0
M  V30 4629 H 440.024 1.91992 -1.69035 0
M  V30 4630 H 439.668 3.98766 -3.1456 0
M  V30 4631 H 439.598 4.99218 -1.67597 0
M  V30 4632 H 442.089 3.43357 -1.57843 0
M  V30 4633 H 442.402 6.73741 -3.78541 0
M  V30 4634 H 440.747 6.06253 -3.39826 0
M  V30 4635 H 443.938 4.21724 -2.03142 0
M  V30 4636 H 444.111 5.72392 -3.03761 0
M  V30 4637 N 437.518 0.538854 1.48102 0
M  V30 4638 C 438.764 0.00801365 2.02798 0
M  V30 4639 C 439.097 -1.3309 1.41424 0
M  V30 4640 O 438.372 -1.86169 0.563158 0
M  V30 4641 C 438.655 -0.104589 3.59948 0
M  V30 4642 C 438.508 1.26012 4.31788 0
M  V30 4643 C 439.827 -0.827055 4.32259 0
M  V30 4644 H 436.946 0.00438624 0.736987 0
M  V30 4645 H 439.588 0.6976 1.7673 0
M  V30 4646 H 437.738 -0.691893 3.82289 0
M  V30 4647 H 439.41 1.88922 4.2084 0
M  V30 4648 H 437.653 1.83968 3.92859 0
M  V30 4649 H 438.324 1.13424 5.40221 0
M  V30 4650 H 440.8 -0.328578 4.14801 0
M  V30 4651 H 439.676 -0.87476 5.41885 0
M  V30 4652 H 439.937 -1.87927 4.0017 0
M  V30 4653 N 438.996 -1.55193 0.274407 0
M  V30 4654 C 439.926 -2.25471 -0.607032 0
M  V30 4655 C 440.907 -1.24461 -1.15946 0
M  V30 4656 O 442.092 -1.53179 -1.19373 0
M  V30 4657 C 439.222 -2.97526 -1.79153 0
M  V30 4658 C 438.176 -4.05459 -1.37067 0
M  V30 4659 C 437.502 -4.65084 -2.6382 0
M  V30 4660 C 438.802 -5.19691 -0.521389 0
M  V30 4661 H 440.496 -2.99393 -0.0209343 0
M  V30 4662 H 438.042 -1.43997 -0.00862866 0
M  V30 4663 H 439.995 -3.45402 -2.41404 0
M  V30 4664 H 438.719 -2.21138 -2.40344 0
M  V30 4665 H 437.378 -3.58393 -0.771355 0
M  V30 4666 H 437.026 -3.85365 -3.23268 0
M  V30 4667 H 436.726 -5.37961 -2.36372 0
M  V30 4668 H 438.25 -5.15708 -3.26921 0
M  V30 4669 H 439.664 -5.63623 -1.04889 0
M  V30 4670 H 438.061 -5.99126 -0.341825 0
M  V30 4671 H 439.131 -4.82713 0.46 0
M  V30 4672 N 440.474 -0.00167713 -1.576 0
M  V30 4673 C 441.89 0.354422 -1.55615 0
M  V30 4674 C 442.09 1.74679 -1.00447 0
M  V30 4675 O 441.146 2.4428 -0.639022 0
M  V30 4676 C 442.459 0.22812 -2.99833 0
M  V30 4677 C 444.007 0.302934 -3.11531 0
M  V30 4678 C 444.482 0.205737 -4.57538 0
M  V30 4679 N 445.973 0.263584 -4.62449 0
M  V30 4680 C 446.708 0.211742 -5.73009 0
M  V30 4681 N 446.204 0.110399 -6.92712 0
M  V30 4682 N 447.997 0.263729 -5.61481 0
M  V30 4683 H 440.148 -0.912498 -1.918 0
M  V30 4684 H 442.411 -0.349928 -0.881053 0
M  V30 4685 H 442.117 -0.729934 -3.44042 0
M  V30 4686 H 441.991 1.00951 -3.6344 0
M  V30 4687 H 444.378 1.25143 -2.67251 0
M  V30 4688 H 444.459 -0.508357 -2.50698 0
M  V30 4689 H 444.103 -0.739225 -5.02492 0
M  V30 4690 H 444.033 1.03554 -5.16318 0
M  V30 4691 H 446.524 0.343173 -3.76339 0
M  V30 4692 H 446.837 0.0767828 -7.72762 0
M  V30 4693 H 445.182 0.0760025 -6.94958 0
M  V30 4694 H 448.373 0.34111 -4.66855 0
M  V30 4695 H 448.546 0.219862 -6.47627 0
M  V30 4696 N 441.952 1.55251 0.271103 0
M  V30 4697 C 442.882 1.9127 1.33933 0
M  V30 4698 C 443.863 0.77478 1.5143 0
M  V30 4699 O 445.048 1.03307 1.64442 0
M  V30 4700 C 442.178 2.18627 2.69851 0
M  V30 4701 C 441.132 3.34442 2.67081 0
M  V30 4702 C 440.458 3.47284 4.06569 0
M  V30 4703 C 441.758 4.70784 2.26185 0
M  V30 4704 H 443.452 2.80744 1.04035 0
M  V30 4705 H 440.998 1.35077 0.499017 0
M  V30 4706 H 442.951 2.42413 3.44694 0
M  V30 4707 H 441.675 1.25955 3.01335 0
M  V30 4708 H 440.334 3.10627 1.94695 0
M  V30 4709 H 439.982 2.52074 4.35279 0
M  V30 4710 H 439.682 4.25152 4.0561 0
M  V30 4711 H 441.206 3.73363 4.83148 0
M  V30 4712 H 442.62 4.94102 2.90751 0
M  V30 4713 H 441.017 5.51582 2.36384 0
M  V30 4714 H 442.087 4.69478 1.21319 0
M  V30 4715 N 443.43 -0.535701 1.48216 0
M  V30 4716 C 444.658 -1.31671 1.59594 0
M  V30 4717 C 445.073 -1.87083 0.254056 0
M  V30 4718 O 444.43 -1.66112 -0.755854 0
M  V30 4719 C 444.481 -2.47158 2.63809 0
M  V30 4720 O 444.202 -1.94032 3.92789 0
M  V30 4721 C 445.703 -3.39062 2.85573 0
M  V30 4722 H 442.923 -0.400623 0.538277 0
M  V30 4723 H 445.467 -0.646827 1.94001 0
M  V30 4724 H 443.622 -3.10043 2.32276 0
M  V30 4725 H 444.036 -2.69585 4.49916 0
M  V30 4726 H 445.51 -4.16459 3.62306 0
M  V30 4727 H 445.987 -3.93941 1.94184 0
M  V30 4728 H 446.593 -2.81975 3.18387 0
M  V30 4729 N 444.908 -1.36708 -0.784132 0
M  V30 4730 C 446.324 -1.17237 -1.08294 0
M  V30 4731 C 446.524 -5.93947e-05 -2.015 0
M  V30 4732 O 445.58 0.663686 -2.43622 0
M  V30 4733 C 446.893 -2.48557 -1.69233 0
M  V30 4734 C 448.441 -2.54968 -1.8155 0
M  V30 4735 C 448.916 -3.86388 -2.45904 0
M  V30 4736 N 450.407 -3.87762 -2.53367 0
M  V30 4737 C 451.142 -4.86191 -3.03983 0
M  V30 4738 N 450.638 -5.95015 -3.54866 0
M  V30 4739 N 452.431 -4.73606 -3.02743 0
M  V30 4740 H 444.582 -2.11758 -0.16501 0
M  V30 4741 H 446.845 -0.93822 -0.135822 0
M  V30 4742 H 446.551 -3.34638 -1.08215 0
M  V30 4743 H 446.425 -2.64748 -2.68679 0
M  V30 4744 H 448.812 -1.69302 -2.41704 0
M  V30 4745 H 448.893 -2.42672 -0.80895 0
M  V30 4746 H 448.537 -4.72462 -1.86392 0
M  V30 4747 H 448.467 -3.95982 -3.4714 0
M  V30 4748 H 450.958 -3.09145 -2.17343 0
M  V30 4749 H 451.271 -6.66086 -3.91854 0
M  V30 4750 H 449.616 -5.98676 -3.53003 0
M  V30 4751 H 452.807 -3.87717 -2.62284 0
M  V30 4752 H 452.98 -5.50473 -3.41881 0
M  V30 4753 N 446.386 1.0089 -1.21074 0
M  V30 4754 C 447.316 2.1145 -0.990523 0
M  V30 4755 C 448.297 1.69897 0.0831699 0
M  V30 4756 O 449.482 1.94052 -0.0758853 0
M  V30 4757 C 446.612 3.42914 -0.550177 0
M  V30 4758 C 445.566 3.98244 -1.56799 0
M  V30 4759 C 444.892 5.25568 -0.984013 0
M  V30 4760 C 446.192 4.30752 -2.95381 0
M  V30 4761 H 447.886 2.3013 -1.91521 0
M  V30 4762 H 445.432 1.10592 -0.92225 0
M  V30 4763 H 447.385 4.19653 -0.383305 0
M  V30 4764 H 446.109 3.24014 0.41015 0
M  V30 4765 H 444.768 3.23621 -1.72236 0
M  V30 4766 H 444.416 5.02998 -0.0155216 0
M  V30 4767 H 444.116 5.63551 -1.66384 0
M  V30 4768 H 445.64 6.04955 -0.828378 0
M  V30 4769 H 447.054 4.98349 -2.8341 0
M  V30 4770 H 445.451 4.79869 -3.60341 0
M  V30 4771 H 446.521 3.39192 -3.46521 0
M  V30 4772 N 447.864 1.01787 1.20321 0
M  V30 4773 C 449.089 0.727009 1.9424 0
M  V30 4774 C 449.514 -0.706179 1.74341 0
M  V30 4775 O 448.872 -1.48609 1.03852 0
M  V30 4776 C 448.92 1.06958 3.44372 0
M  V30 4777 O 448.024 0.181983 4.11998 0
M  V30 4778 H 447.365 0.269626 0.606793 0
M  V30 4779 H 449.895 1.36158 1.52716 0
M  V30 4780 H 449.905 1.02182 3.94997 0
M  V30 4781 H 448.58 2.11378 3.58179 0
M  V30 4782 H 447.157 0.287378 3.71791 0
M  V30 4783 N 449.342 -1.36122 0.79427 0
M  V30 4784 C 450.753 -1.81646 0.431446 0
M  V30 4785 C 451.104 -1.66043 -1.04518 0
M  V30 4786 O 450.229 -1.1841 -1.8113 0
M  V30 4787 C 450.824 -3.29785 0.776341 0
M  V30 4788 C 449.383 -3.73501 0.466282 0
M  V30 4789 C 448.53 -2.58313 1.00844 0
M  V30 4790 H 451.481 -1.24274 0.986995 0
M  V30 4791 H 451.502 -3.80437 0.0692413 0
M  V30 4792 H 451.014 -3.4111 1.8511 0
M  V30 4793 H 449.115 -3.67733 -0.600245 0
M  V30 4794 H 449.228 -4.68754 0.990288 0
M  V30 4795 H 447.592 -2.5102 0.431406 0
M  V30 4796 H 448.375 -2.72421 2.08906 0
M  V30 4797 N 450.82 -0.546701 -1.47814 0
M  V30 4798 C 451.73 0.21026 -2.33656 0
M  V30 4799 C 452.746 0.922413 -1.47538 0
M  V30 4800 O 453.922 0.893652 -1.80488 0
M  V30 4801 C 450.987 1.23348 -3.24016 0
M  V30 4802 C 450.048 0.529883 -4.26017 0
M  V30 4803 C 449.281 1.50435 -5.12059 0
M  V30 4804 O 449.504 2.73837 -5.00369 0
M  V30 4805 O 448.438 1.03459 -5.92942 0
M  V30 4806 H 452.264 -0.493605 -2.99662 0
M  V30 4807 H 449.849 -0.307427 -1.46203 0
M  V30 4808 H 451.731 1.82438 -3.79861 0
M  V30 4809 H 450.406 1.91945 -2.60651 0
M  V30 4810 H 449.313 -0.101948 -3.73961 0
M  V30 4811 H 450.646 -0.11445 -4.92067 0
M  V30 4812 N 452.299 1.55045 -0.282633 0
M  V30 4813 C 453.548 1.98938 0.332667 0
M  V30 4814 C 453.861 1.17455 1.56409 0
M  V30 4815 O 455.067 1.51527 2.25282 0
M  V30 4816 C 453.523 3.54105 0.643226 0
M  V30 4817 C 453.131 4.44374 -0.568814 0
M  V30 4818 C 454.875 4.06569 1.22074 0
M  V30 4819 C 452.782 5.90943 -0.232426 0
M  V30 4820 H 451.712 0.743043 0.128075 0
M  V30 4821 H 454.363 1.79341 -0.388464 0
M  V30 4822 H 452.745 3.69532 1.42346 0
M  V30 4823 H 453.919 4.40718 -1.34551 0
M  V30 4824 H 452.234 4.02585 -1.06369 0
M  V30 4825 H 454.831 5.13626 1.48635 0
M  V30 4826 H 455.174 3.56057 2.15707 0
M  V30 4827 H 455.707 3.94612 0.502621 0
M  V30 4828 H 452.446 6.45567 -1.13683 0
M  V30 4829 H 451.966 5.9765 0.507357 0
M  V30 4830 H 453.645 6.4677 0.172657 0
M  V30 4831 N 453.777 0.010035 1.57597 0
M  V30 4832 C 455.023 -0.673697 1.91283 0
M  V30 4833 C 455.356 -1.72863 0.884979 0
M  V30 4834 O 454.631 -1.94268 -0.0949487 0
M  V30 4835 C 454.914 -1.30766 3.35518 0
M  V30 4836 C 454.767 -0.263578 4.49027 0
M  V30 4837 C 456.086 -2.23105 3.79358 0
M  V30 4838 H 453.205 -0.243439 0.695634 0
M  V30 4839 H 455.847 0.0633864 1.89894 0
M  V30 4840 H 453.997 -1.93588 3.36832 0
M  V30 4841 H 455.669 0.365738 4.59848 0
M  V30 4842 H 453.912 0.413077 4.31829 0
M  V30 4843 H 454.583 -0.746398 5.4693 0
M  V30 4844 H 457.059 -1.70289 3.79659 0
M  V30 4845 H 455.935 -2.64424 4.81011 0
M  V30 4846 H 456.196 -3.11433 3.13787 0
M  V30 4847 N 455.255 -1.55392 -0.262866 0
M  V30 4848 C 456.165 -1.92077 -1.34698 0
M  V30 4849 C 457.181 -0.819227 -1.53508 0
M  V30 4850 O 458.357 -1.11921 -1.67439 0
M  V30 4851 C 455.422 -2.19407 -2.68443 0
M  V30 4852 C 454.483 -3.42905 -2.58292 0
M  V30 4853 C 453.716 -3.68921 -3.85659 0
M  V30 4854 O 453.939 -2.97275 -4.8681 0
M  V30 4855 O 452.873 -4.62455 -3.85252 0
M  V30 4856 H 456.699 -2.84384 -1.06581 0
M  V30 4857 H 454.284 -1.42069 -0.462264 0
M  V30 4858 H 456.166 -2.38365 -3.47506 0
M  V30 4859 H 454.841 -1.30282 -2.96325 0
M  V30 4860 H 453.748 -3.29272 -1.7757 0
M  V30 4861 H 455.081 -4.32282 -2.35358 0
M  V30 4862 N 456.733 0.527833 -1.48498 0
M  V30 4863 C 457.663 1.64136 -1.66077 0
M  V30 4864 C 458.644 1.62286 -0.509625 0
M  V30 4865 O 459.829 1.79449 -0.742413 0
M  V30 4866 C 456.959 3.02717 -1.70234 0
M  V30 4867 C 455.913 3.19426 -2.8487 0
M  V30 4868 C 455.239 4.5909 -2.74118 0
M  V30 4869 C 456.539 3.01993 -4.26142 0
M  V30 4870 H 458.233 1.4968 -2.593 0
M  V30 4871 H 455.779 0.718654 -1.24785 0
M  V30 4872 H 457.732 3.80491 -1.8112 0
M  V30 4873 H 456.456 3.18201 -0.735911 0
M  V30 4874 H 455.115 2.4407 -2.73542 0
M  V30 4875 H 454.763 4.71413 -1.7544 0
M  V30 4876 H 454.463 4.71214 -3.51042 0
M  V30 4877 H 455.987 5.3896 -2.86974 0
M  V30 4878 H 457.401 3.69558 -4.38292 0
M  V30 4879 H 455.798 3.2561 -5.04082 0
M  V30 4880 H 456.868 1.98396 -4.42456 0
M  V30 4881 N 458.211 1.37122 0.776871 0
M  V30 4882 C 459.436 1.354 1.57104 0
M  V30 4883 C 459.861 -0.0595562 1.88006 0
M  V30 4884 O 459.219 -1.03514 1.48844 0
M  V30 4885 C 459.267 2.19472 2.8612 0
M  V30 4886 O 458.371 1.59582 3.80273 0
M  V30 4887 H 457.712 0.462869 0.476076 0
M  V30 4888 H 460.242 1.80577 0.961932 0
M  V30 4889 H 460.252 2.32502 3.35271 0
M  V30 4890 H 458.927 3.22222 2.62956 0
M  V30 4891 H 457.504 1.55564 3.38902 0
M  V30 4892 N 459.689 -1.00246 1.21608 0
M  V30 4893 C 460.599 -2.12515 0.993709 0
M  V30 4894 C 461.615 -1.73913 -0.0549939 0
M  V30 4895 O 462.791 -2.00943 0.135619 0
M  V30 4896 C 459.856 -3.42083 0.563953 0
M  V30 4897 C 458.917 -3.94843 1.68516 0
M  V30 4898 C 458.15 -5.18226 1.27582 0
M  V30 4899 O 458.373 -5.70201 0.150506 0
M  V30 4900 O 457.307 -5.64497 2.0887 0
M  V30 4901 H 461.133 -2.34152 1.93407 0
M  V30 4902 H 458.718 -1.10891 1.00118 0
M  V30 4903 H 460.6 -4.20073 0.334194 0
M  V30 4904 H 459.275 -3.21828 -0.347665 0
M  V30 4905 H 458.182 -3.18068 1.96935 0
M  V30 4906 H 459.515 -4.19512 2.5743 0
M  V30 4907 N 461.167 -1.02423 -1.1978 0
M  V30 4908 C 462.578 -0.748389 -1.71044 0
M  V30 4909 C 462.929 0.732398 -1.82017 0
M  V30 4910 O 462.054 1.57116 -1.48807 0
M  V30 4911 C 462.649 -1.35187 -3.1066 0
M  V30 4912 C 461.208 -1.12472 -3.59203 0
M  V30 4913 C 460.355 -1.45283 -2.36195 0
M  V30 4914 H 463.306 -1.19275 -1.04686 0
M  V30 4915 H 463.327 -0.746408 -3.73107 0
M  V30 4916 H 462.839 -2.4296 -3.02642 0
M  V30 4917 H 460.94 -0.0649983 -3.72543 0
M  V30 4918 H 461.053 -1.81016 -4.43588 0
M  V30 4919 H 459.417 -0.872034 -2.39307 0
M  V30 4920 H 460.2 -2.54129 -2.30811 0
M  V30 4921 N 462.645 1.35699 -0.801477 0
M  V30 4922 C 463.575 2.32436 -0.222658 0
M  V30 4923 C 464.556 1.5723 0.649057 0
M  V30 4924 O 465.741 1.85324 0.580387 0
M  V30 4925 C 462.871 3.41469 0.633719 0
M  V30 4926 C 461.825 4.27774 -0.139083 0
M  V30 4927 C 461.151 5.28082 0.838666 0
M  V30 4928 C 462.451 5.04946 -1.33517 0
M  V30 4929 H 464.145 2.81094 -1.03086 0
M  V30 4930 H 461.691 1.35146 -0.497155 0
M  V30 4931 H 463.644 4.08143 1.04868 0
M  V30 4932 H 462.368 2.91408 1.47475 0
M  V30 4933 H 461.027 3.62673 -0.535156 0
M  V30 4934 H 460.675 4.7429 1.67506 0
M  V30 4935 H 460.375 5.86695 0.32594 0
M  V30 4936 H 461.899 5.97628 1.25194 0
M  V30 4937 H 463.313 5.64593 -0.995349 0
M  V30 4938 H 461.71 5.7303 -1.78202 0
M  V30 4939 H 462.78 4.35886 -2.12442 0
M  V30 4940 N 464.123 0.554532 1.47522 0
M  V30 4941 C 465.055 -0.232106 2.28022 0
M  V30 4942 C 466.068 -0.881865 1.36847 0
M  V30 4943 O 467.257 -0.756168 1.61692 0
M  V30 4944 C 464.357 -1.34604 3.11022 0
M  V30 4945 C 463.53 -0.793582 4.30141 0
M  V30 4946 C 462.589 -1.79168 4.94758 0
M  V30 4947 O 461.615 -1.33886 5.5323 0
M  V30 4948 N 462.817 -3.12495 4.89211 0
M  V30 4949 H 465.582 0.458407 2.96173 0
M  V30 4950 H 463.143 0.390433 1.57122 0
M  V30 4951 H 465.135 -2.01243 3.51118 0
M  V30 4952 H 463.705 -1.93983 2.45131 0
M  V30 4953 H 462.925 0.0495025 3.94169 0
M  V30 4954 H 464.213 -0.403776 5.07195 0
M  V30 4955 H 463.611 -3.51931 4.42901 0
M  V30 4956 H 462.168 -3.74698 5.33333 0
M  V30 4957 N 465.601 -1.54893 0.290851 0
M  V30 4958 C 466.847 -2.0023 -0.321867 0
M  V30 4959 C 467.18 -1.179 -1.54316 0
M  V30 4960 O 466.455 -0.25293 -1.92848 0
M  V30 4961 C 466.738 -3.53456 -0.688515 0
M  V30 4962 C 466.591 -4.46532 0.541209 0
M  V30 4963 C 467.91 -4.13057 -1.51895 0
M  V30 4964 H 465.029 -0.727891 -0.115515 0
M  V30 4965 H 467.671 -1.85722 0.400931 0
M  V30 4966 H 465.821 -3.6595 -1.30433 0
M  V30 4967 H 467.493 -4.4596 1.17973 0
M  V30 4968 H 465.736 -4.17545 1.17636 0
M  V30 4969 H 466.407 -5.51475 0.240675 0
M  V30 4970 H 468.883 -4.03937 -0.99872 0
M  V30 4971 H 467.759 -5.20448 -1.74429 0
M  V30 4972 H 468.02 -3.64284 -2.50498 0
M  V30 4973 N 467.08 -0.0183926 -1.57589 0
M  V30 4974 C 468.326 0.663543 -1.91638 0
M  V30 4975 C 468.659 1.72392 -0.894134 0
M  V30 4976 O 467.934 1.94316 0.0846449 0
M  V30 4977 C 468.217 1.28984 -3.36207 0
M  V30 4978 C 468.07 0.239761 -4.49161 0
M  V30 4979 C 469.389 2.2109 -3.80536 0
M  V30 4980 H 466.508 0.239746 -0.696915 0
M  V30 4981 H 469.15 -0.073456 -1.89858 0
M  V30 4982 H 467.3 1.91799 -3.37854 0
M  V30 4983 H 468.972 -0.390119 -4.59647 0
M  V30 4984 H 467.215 -0.435972 -4.31604 0
M  V30 4985 H 467.886 0.717383 -5.47319 0
M  V30 4986 H 470.362 1.68273 -3.80557 0
M  V30 4987 H 469.238 2.61869 -4.82406 0
M  V30 4988 H 469.499 3.09764 -3.15434 0
M  V30 4989 N 468.558 1.5553 0.254621 0
M  V30 4990 C 469.974 1.4778 0.602753 0
M  V30 4991 C 470.174 0.707047 1.88688 0
M  V30 4992 O 469.23 0.233288 2.5142 0
M  V30 4993 C 470.543 2.92133 0.712648 0
M  V30 4994 C 472.091 3.02458 0.805488 0
M  V30 4995 C 472.566 4.48102 0.947009 0
M  V30 4996 N 474.057 4.52008 1.01207 0
M  V30 4997 C 474.792 5.61939 1.1407 0
M  V30 4998 N 474.288 6.81697 1.23536 0
M  V30 4999 N 476.081 5.49719 1.17325 0
M  V30 5000 H 468.232 2.04085 -0.588463 0
M  V30 5001 H 470.495 0.926229 -0.202001 0
M  V30 5002 H 470.201 3.51332 -0.160766 0
M  V30 5003 H 470.075 3.42187 1.58707 0
M  V30 5004 H 472.462 2.43344 1.66936 0
M  V30 5005 H 472.543 2.55627 -0.0939266 0
M  V30 5006 H 472.187 5.07824 0.087725 0
M  V30 5007 H 472.117 4.92607 1.86135 0
M  V30 5008 H 474.608 3.65749 0.950577 0
M  V30 5009 H 474.921 7.61228 1.33236 0
M  V30 5010 H 473.266 6.84473 1.20508 0
M  V30 5011 H 476.457 4.55095 1.09573 0
M  V30 5012 H 476.63 6.35432 1.27005 0
M  V30 5013 N 470.036 -0.519951 1.48776 0
M  V30 5014 C 471.266 -1.29783 1.60748 0
M  V30 5015 C 471.674 -1.87253 0.27072 0
M  V30 5016 O 471.017 -1.67628 -0.751438 0
M  V30 5017 C 471.079 -2.47984 2.60277 0
M  V30 5018 C 470.743 -2.11526 4.051 0
M  V30 5019 C 471.74 -1.66608 4.92481 0
M  V30 5020 C 469.425 -2.21742 4.50706 0
M  V30 5021 C 471.419 -1.32384 6.23501 0
M  V30 5022 C 469.106 -1.87129 5.81744 0
M  V30 5023 C 470.104 -1.42523 6.67964 0
M  V30 5024 O 469.792 -1.0837 7.96562 0
M  V30 5025 H 469.524 -0.400562 0.544542 0
M  V30 5026 H 472.078 -0.632879 1.95407 0
M  V30 5027 H 470.308 -3.17493 2.2076 0
M  V30 5028 H 471.997 -3.10036 2.61978 0
M  V30 5029 H 472.763 -1.58178 4.58481 0
M  V30 5030 H 468.642 -2.55415 3.83776 0
M  V30 5031 H 472.186 -0.974949 6.90754 0
M  V30 5032 H 468.083 -1.95204 6.15277 0
M  V30 5033 H 468.851 -1.21681 8.09405 0
M  V30 5034 N 471.514 -1.37532 -0.769588 0
M  V30 5035 C 472.762 -1.32597 -1.5252 0
M  V30 5036 C 473.083 0.0884294 -1.94799 0
M  V30 5037 O 472.353 1.03289 -1.66458 0
M  V30 5038 H 470.933 -0.487846 -0.565699 0
M  V30 5039 H 473.595 -1.72044 -0.915806 0
M  V30 5040 H 472.691 -1.96643 -2.42359 0
M  V30 5041 N 472.992 0.995999 -1.22138 0
M  V30 5042 C 473.902 2.11985 -1.00496 0
M  V30 5043 C 474.918 1.7394 0.0457701 0
M  V30 5044 O 476.094 2.00868 -0.146273 0
M  V30 5045 C 473.159 3.41779 -0.582086 0
M  V30 5046 C 472.22 3.93943 -1.70608 0
M  V30 5047 C 471.453 5.17542 -1.30328 0
M  V30 5048 O 471.676 5.70114 -0.180743 0
M  V30 5049 O 470.61 5.63382 -2.11861 0
M  V30 5050 H 474.436 2.33123 -1.94647 0
M  V30 5051 H 472.021 1.10358 -1.00705 0
M  V30 5052 H 473.903 4.1989 -0.356467 0
M  V30 5053 H 472.578 3.22007 0.330592 0
M  V30 5054 H 471.485 3.17019 -1.98619 0
M  V30 5055 H 472.818 4.18141 -2.59651 0
M  V30 5056 N 474.47 1.03057 1.19235 0
M  V30 5057 C 475.718 0.726581 1.88587 0
M  V30 5058 C 476.039 -0.747227 1.80115 0
M  V30 5059 O 475.309 -1.53849 1.21274 0
M  V30 5060 H 473.889 0.265768 0.698124 0
M  V30 5061 H 476.551 1.30516 1.44746 0
M  V30 5062 H 475.647 1.0224 2.94879 0
M  V30 5063 N 475.948 -1.35272 0.808662 0
M  V30 5064 C 477.196 -1.98316 0.389233 0
M  V30 5065 C 477.517 -1.64465 -1.04767 0
M  V30 5066 O 476.787 -0.928175 -1.72516 0
M  V30 5067 H 475.367 -0.733585 0.140935 0
M  V30 5068 H 478.029 -1.6515 1.03496 0
M  V30 5069 H 477.125 -3.08123 0.496631 0
M  V30 5070 N 477.426 -0.562348 -1.47226 0
M  V30 5071 C 478.376 0.202967 -2.27095 0
M  V30 5072 C 479.36 0.880611 -1.34663 0
M  V30 5073 O 480.552 0.778069 -1.58981 0
M  V30 5074 C 477.681 1.22906 -3.20545 0
M  V30 5075 C 476.767 0.554566 -4.20459 0
M  V30 5076 N 477.158 -0.378295 -5.04383 0
M  V30 5077 C 475.456 0.807854 -4.38623 0
M  V30 5078 C 476.157 -0.770583 -5.76573 0
M  V30 5079 N 475.133 -0.124263 -5.43458 0
M  V30 5080 H 478.935 -0.514196 -2.89367 0
M  V30 5081 H 476.449 -0.382655 -1.57827 0
M  V30 5082 H 478.446 1.79134 -3.76453 0
M  V30 5083 H 477.106 1.94726 -2.59831 0
M  V30 5084 H 478.117 -0.75274 -5.124 0
M  V30 5085 H 474.794 1.51418 -3.89075 0
M  V30 5086 H 476.184 -1.53742 -6.54074 0
M  V30 5087 N 478.904 1.54736 -0.299062 0
M  V30 5088 C 480.134 2.04215 0.312992 0
M  V30 5089 C 480.542 1.17596 1.48215 0
M  V30 5090 O 479.885 0.193835 1.82674 0
M  V30 5091 C 479.947 3.49696 0.833862 0
M  V30 5092 C 479.611 4.56518 -0.20977 0
M  V30 5093 C 480.608 5.09442 -1.03756 0
M  V30 5094 C 478.293 5.01073 -0.35091 0
M  V30 5095 C 480.287 6.05459 -1.99244 0
M  V30 5096 C 477.974 5.9691 -1.30924 0
M  V30 5097 C 478.972 6.48987 -2.1285 0
M  V30 5098 O 478.66 7.42947 -3.07059 0
M  V30 5099 H 478.392 0.672128 0.0722494 0
M  V30 5100 H 480.946 2.00718 -0.436043 0
M  V30 5101 H 479.176 3.5051 1.63339 0
M  V30 5102 H 480.865 3.82381 1.36159 0
M  V30 5103 H 481.631 4.75816 -0.939376 0
M  V30 5104 H 477.51 4.60168 0.276813 0
M  V30 5105 H 481.054 6.46031 -2.63229 0
M  V30 5106 H 476.951 6.29953 -1.40815 0
M  V30 5107 H 477.719 7.60743 -3.02015 0
M  V30 5108 N 480.382 0.0267497 1.57577 0
M  V30 5109 C 481.332 -0.965003 2.06571 0
M  V30 5110 C 482.316 -1.28694 0.965746 0
M  V30 5111 O 483.508 -1.27345 1.22932 0
M  V30 5112 C 480.637 -2.24821 2.59443 0
M  V30 5113 C 479.723 -1.95474 3.76365 0
M  V30 5114 N 480.114 -1.36387 4.87065 0
M  V30 5115 C 478.412 -2.25478 3.84806 0
M  V30 5116 C 479.113 -1.24119 5.68304 0
M  V30 5117 N 478.089 -1.7359 5.15138 0
M  V30 5118 H 481.891 -0.503095 2.89562 0
M  V30 5119 H 479.405 -0.178322 1.61418 0
M  V30 5120 H 481.402 -2.9674 2.92833 0
M  V30 5121 H 480.062 -2.7164 1.77881 0
M  V30 5122 H 481.073 -1.03919 5.07367 0
M  V30 5123 H 477.75 -2.74987 3.14147 0
M  V30 5124 H 479.14 -0.784504 6.67304 0
M  V30 5125 N 481.861 -1.55662 -0.24637 0
M  V30 5126 C 482.824 -1.89558 -1.28842 0
M  V30 5127 C 483.824 -0.772082 -1.41052 0
M  V30 5128 O 485.014 -1.04007 -1.39743 0
M  V30 5129 C 482.146 -2.12449 -2.66605 0
M  V30 5130 H 483.339 -2.82735 -1.00004 0
M  V30 5131 H 480.892 -1.48562 -0.485684 0
M  V30 5132 H 481.627 -1.21742 -3.00582 0
M  V30 5133 H 481.412 -2.94273 -2.59125 0
M  V30 5134 H 482.902 -2.39854 -3.41847 0
M  V30 5135 N 483.339 0.512053 -1.4905 0
M  V30 5136 C 484.289 1.61142 -1.61298 0
M  V30 5137 C 485.273 1.53908 -0.46916 0
M  V30 5138 O 486.465 1.61625 -0.721547 0
M  V30 5139 C 483.594 2.998 -1.67256 0
M  V30 5140 C 482.68 3.12072 -2.87179 0
M  V30 5141 N 483.071 2.94263 -4.11391 0
M  V30 5142 C 481.369 3.43156 -2.84886 0
M  V30 5143 C 482.07 3.10426 -4.91946 0
M  V30 5144 N 481.046 3.38808 -4.251 0
M  V30 5145 H 484.848 1.46011 -2.55065 0
M  V30 5146 H 482.362 0.717934 -1.45669 0
M  V30 5147 H 484.359 3.78794 -1.74128 0
M  V30 5148 H 483.019 3.1601 -0.746195 0
M  V30 5149 H 484.03 2.70661 -4.41546 0
M  V30 5150 H 480.707 3.65611 -2.01581 0
M  V30 5151 H 482.097 3.01243 -6.00585 0
M  V30 5152 N 484.817 1.37938 0.762283 0
M  V30 5153 C 486.063 1.33866 1.52341 0
M  V30 5154 C 486.396 -0.0738961 1.94059 0
M  V30 5155 O 485.671 -1.03326 1.64785 0
M  V30 5156 C 485.954 2.28644 2.78197 0
M  V30 5157 C 485.807 3.78722 2.42672 0
M  V30 5158 C 487.126 2.21702 3.80179 0
M  V30 5159 H 484.245 0.487593 0.55265 0
M  V30 5160 H 486.887 1.68717 0.873767 0
M  V30 5161 H 485.037 1.99055 3.33631 0
M  V30 5162 H 486.709 4.18948 1.93081 0
M  V30 5163 H 484.952 3.96827 1.75244 0
M  V30 5164 H 485.623 4.40486 3.3268 0
M  V30 5165 H 488.099 2.47805 3.34263 0
M  V30 5166 H 486.975 2.90143 4.65949 0
M  V30 5167 H 487.236 1.21301 4.25133 0
M  V30 5168 N 486.295 -0.989507 1.22664 0
M  V30 5169 C 487.572 -1.70326 0.961688 0
M  V30 5170 C 487.952 -2.04537 -0.522279 0
M  V30 5171 O 487.3 -1.73136 -1.49118 0
M  V30 5172 C 487.51 -2.95135 1.86269 0
M  V30 5173 C 488.858 -3.67842 2.12078 0
M  V30 5174 O 489.882 -3.0515 1.83745 0
M  V30 5175 O 488.741 -4.80644 2.60083 0
M  V30 5176 H 485.835 -0.743589 0.361946 0
M  V30 5177 H 488.381 -1.04555 1.33665 0
M  V30 5178 H 487.153 -2.66382 2.8663 0
M  V30 5179 H 486.776 -3.68645 1.48952 0
M  V30 5180 N 487.773 -1.03688 -1.18687 0
M  V30 5181 C 488.998 -0.757819 -1.93059 0
M  V30 5182 C 489.423 0.678353 -1.75442 0
M  V30 5183 O 488.781 1.46938 -1.06203 0
M  V30 5184 C 488.829 -1.12423 -3.42627 0
M  V30 5185 O 487.933 -0.247505 -4.11657 0
M  V30 5186 H 487.274 -0.279245 -0.602427 0
M  V30 5187 H 489.804 -1.3857 -1.5053 0
M  V30 5188 H 489.814 -1.08454 -3.93322 0
M  V30 5189 H 488.489 -2.17049 -3.54771 0
M  V30 5190 H 487.066 -0.34649 -3.71287 0
M  V30 5191 N 489.251 1.34841 -0.815825 0
M  V30 5192 C 490.499 1.98107 -0.399744 0
M  V30 5193 C 490.82 1.65019 1.03894 0
M  V30 5194 O 490.09 0.937311 1.72021 0
M  V30 5195 H 488.67 0.732827 -0.144823 0
M  V30 5196 H 491.332 1.64599 -1.0437 0
M  V30 5197 H 490.428 3.07856 -0.512965 0
M  V30 5198 N 490.729 0.570148 1.46925 0
M  V30 5199 C 492.14 0.1402 1.86173 0
M  V30 5200 C 492.491 -1.29347 1.47526 0
M  V30 5201 O 491.616 -1.97508 0.884292 0
M  V30 5202 C 492.211 0.247661 3.37894 0
M  V30 5203 C 490.77 -0.127332 3.76185 0
M  V30 5204 C 489.917 0.589349 2.70965 0
M  V30 5205 H 492.868 0.779117 1.38259 0
M  V30 5206 H 492.889 -0.530341 3.76786 0
M  V30 5207 H 492.401 1.29121 3.65991 0
M  V30 5208 H 490.502 -1.17149 3.53704 0
M  V30 5209 H 490.615 0.240238 4.78497 0
M  V30 5210 H 488.979 0.0309824 2.54681 0
M  V30 5211 H 489.762 1.6343 3.01903 0
M  V30 5212 N 492.207 -1.54576 0.307264 0
M  V30 5213 C 493.453 -2.0056 -0.300612 0
M  V30 5214 C 493.786 -1.1953 -1.53057 0
M  V30 5215 O 493.061 -0.27337 -1.92569 0
M  V30 5216 C 493.344 -3.54167 -0.650987 0
M  V30 5217 C 493.197 -4.45933 0.588539 0
M  V30 5218 C 494.516 -4.14645 -1.47506 0
M  V30 5219 H 491.635 -0.729075 -0.107788 0
M  V30 5220 H 494.277 -1.85286 0.420606 0
M  V30 5221 H 492.427 -3.67313 -1.26544 0
M  V30 5222 H 494.099 -4.44683 1.22697 0
M  V30 5223 H 492.342 -4.16274 1.22058 0
M  V30 5224 H 493.013 -5.51189 0.299153 0
M  V30 5225 H 495.489 -4.04973 -0.955821 0
M  V30 5226 H 494.365 -5.22269 -1.68899 0
M  V30 5227 H 494.626 -3.66921 -2.4662 0
M  V30 5228 N 493.685 -0.035106 -1.57561 0
M  V30 5229 C 494.915 0.651312 -1.96065 0
M  V30 5230 C 495.323 1.6585 -0.910514 0
M  V30 5231 O 494.666 1.83336 0.11552 0
M  V30 5232 C 494.728 1.40897 -3.30739 0
M  V30 5233 C 494.392 0.559436 -4.53563 0
M  V30 5234 C 495.389 -0.16778 -5.19629 0
M  V30 5235 C 493.074 0.495079 -4.99854 0
M  V30 5236 C 495.068 -0.947963 -6.30311 0
M  V30 5237 C 492.755 -0.288804 -6.10417 0
M  V30 5238 C 493.753 -1.00903 -6.75505 0
M  V30 5239 O 493.441 -1.78005 -7.83945 0
M  V30 5240 H 493.173 0.184036 -0.650467 0
M  V30 5241 H 495.727 -0.0929677 -2.05189 0
M  V30 5242 H 493.957 2.19852 -3.18123 0
M  V30 5243 H 495.646 1.98407 -3.54104 0
M  V30 5244 H 496.412 -0.12743 -4.84833 0
M  V30 5245 H 492.291 1.04524 -4.48994 0
M  V30 5246 H 495.835 -1.51064 -6.81047 0
M  V30 5247 H 491.732 -0.33085 -6.44652 0
M  V30 5248 H 492.5 -1.70046 -8.00641 0
M  V30 5249 N 495.163 1.55791 0.238111 0
M  V30 5250 C 496.574 1.68383 0.806472 0
M  V30 5251 C 496.925 0.634157 1.85669 0
M  V30 5252 O 496.05 -0.217913 2.153 0
M  V30 5253 C 496.645 3.05268 1.46959 0
M  V30 5254 C 495.204 3.1977 1.98555 0
M  V30 5255 C 494.351 2.64279 0.839763 0
M  V30 5256 H 497.302 1.58694 0.0137535 0
M  V30 5257 H 497.323 3.00203 2.33792 0
M  V30 5258 H 496.835 3.81643 0.704993 0
M  V30 5259 H 494.936 2.48234 2.77868 0
M  V30 5260 H 495.049 4.26788 2.17689 0
M  V30 5261 H 493.413 2.22329 1.24265 0
M  V30 5262 H 494.196 3.43187 0.0881032 0
M  V30 5263 N 496.642 -0.504142 1.49319 0
M  V30 5264 C 497.552 -1.63248 1.68486 0
M  V30 5265 C 498.568 -1.64488 0.567432 0
M  V30 5266 O 499.744 -1.82966 0.841749 0
M  V30 5267 C 496.809 -2.99627 1.74426 0
M  V30 5268 C 495.87 -3.09039 2.97982 0
M  V30 5269 C 495.103 -4.38913 3.0363 0
M  V30 5270 O 495.326 -5.27528 2.16958 0
M  V30 5271 O 494.26 -4.53231 3.96062 0
M  V30 5272 H 498.086 -1.50008 2.64067 0
M  V30 5273 H 495.671 -0.680086 1.33023 0
M  V30 5274 H 497.553 -3.80689 1.80705 0
M  V30 5275 H 496.228 -3.13136 0.820233 0
M  V30 5276 H 495.135 -2.27177 2.97223 0
M  V30 5277 H 496.468 -3.00456 3.89855 0
M  V30 5278 N 498.12 -1.38341 -0.754957 0
M  V30 5279 C 499.348 -1.37704 -1.54419 0
M  V30 5280 C 499.763 0.0335243 -1.8877 0
M  V30 5281 O 499.12 0.999773 -1.52679 0
M  V30 5282 C 499.171 -2.23136 -2.84416 0
M  V30 5283 O 498.892 -3.58697 -2.51531 0
M  V30 5284 C 500.393 -2.30664 -3.78562 0
M  V30 5285 H 497.613 -0.471061 -0.477852 0
M  V30 5286 H 500.157 -1.81902 -0.934446 0
M  V30 5287 H 498.312 -1.82403 -3.41772 0
M  V30 5288 H 498.726 -4.03665 -3.34896 0
M  V30 5289 H 500.2 -2.9473 -4.66732 0
M  V30 5290 H 500.677 -1.3199 -4.18898 0
M  V30 5291 H 501.283 -2.71781 -3.27131 0
M  V30 5292 N 499.598 0.982988 -1.23187 0
M  V30 5293 C 500.847 1.71817 -1.05649 0
M  V30 5294 C 501.16 1.91315 0.407176 0
M  V30 5295 O 502.366 2.62256 0.702436 0
M  V30 5296 C 500.822 3.09188 -1.84203 0
M  V30 5297 C 500.43 2.97586 -3.34882 0
M  V30 5298 C 502.174 3.86684 -1.75146 0
M  V30 5299 C 500.081 4.30173 -4.05839 0
M  V30 5300 H 499.011 0.644258 -0.391724 0
M  V30 5301 H 501.662 1.09659 -1.4713 0
M  V30 5302 H 500.044 3.72087 -1.35527 0
M  V30 5303 H 501.218 2.43793 -3.91026 0
M  V30 5304 H 499.533 2.33567 -3.44725 0
M  V30 5305 H 502.13 4.84836 -2.25473 0
M  V30 5306 H 502.473 4.10136 -0.713737 0
M  V30 5307 H 503.006 3.30482 -2.21419 0
M  V30 5308 H 499.745 4.11918 -5.09906 0
M  V30 5309 H 499.265 4.83841 -3.54482 0
M  V30 5310 H 500.944 4.98873 -4.11989 0
M  V30 5311 N 501.076 1.04316 1.18135 0
M  V30 5312 C 502.316 0.756937 1.89868 0
M  V30 5313 C 502.68 -0.702609 1.78682 0
M  V30 5314 O 503.881 -1.10255 2.45148 0
M  V30 5315 C 502.152 1.21327 3.36176 0
M  V30 5316 S 503.711 1.05307 4.25976 0
M  V30 5317 H 500.529 0.275143 0.655604 0
M  V30 5318 H 503.131 1.33597 1.42731 0
M  V30 5319 H 501.835 2.27086 3.41848 0
M  V30 5320 H 501.366 0.628137 3.88353 0
M  V30 5321 H 503.381 -0.0280093 4.96192 0
M  V30 5322 N 502.554 -1.34406 0.822964 0
M  V30 5323 C 503.779 -2.0304 0.423034 0
M  V30 5324 C 504.204 -1.61568 -0.963196 0
M  V30 5325 O 503.562 -0.800339 -1.62678 0
M  V30 5326 C 503.61 -3.56636 0.53321 0
M  V30 5327 O 502.714 -4.09971 -0.446939 0
M  V30 5328 H 502.055 -0.64075 0.174171 0
M  V30 5329 H 504.585 -1.71653 1.11339 0
M  V30 5330 H 504.595 -4.05945 0.408991 0
M  V30 5331 H 503.27 -3.86168 1.54425 0
M  V30 5332 H 501.847 -3.71835 -0.281601 0
M  V30 5333 N 504.032 -0.577932 -1.46621 0
M  V30 5334 C 504.982 0.178869 -2.27297 0
M  V30 5335 C 505.966 0.866279 -1.35589 0
M  V30 5336 O 507.158 0.761163 -1.59798 0
M  V30 5337 C 504.287 1.19499 -3.2183 0
M  V30 5338 C 503.373 0.50994 -4.21023 0
M  V30 5339 N 503.764 -0.43177 -5.03954 0
M  V30 5340 C 502.062 0.761287 -4.39455 0
M  V30 5341 C 502.763 -0.831693 -5.75724 0
M  V30 5342 N 501.739 -0.181897 -5.43296 0
M  V30 5343 H 505.541 -0.544859 -2.88805 0
M  V30 5344 H 503.055 -0.399373 -1.57413 0
M  V30 5345 H 505.052 1.75131 -3.78332 0
M  V30 5346 H 503.712 1.91959 -2.61881 0
M  V30 5347 H 504.723 -0.807045 -5.11573 0
M  V30 5348 H 501.4 1.47282 -3.90659 0
M  V30 5349 H 502.79 -1.6067 -6.52407 0
M  V30 5350 N 505.51 1.54411 -0.315457 0
M  V30 5351 C 506.738 2.04833 0.291738 0
M  V30 5352 C 507.153 1.19203 1.46411 0
M  V30 5353 O 506.51 0.220867 1.81159 0
M  V30 5354 C 506.561 3.53969 0.73404 0
M  V30 5355 O 506.282 4.36346 -0.391682 0
M  V30 5356 C 507.783 4.2045 1.40489 0
M  V30 5357 H 505.003 0.668195 0.0612947 0
M  V30 5358 H 507.547 1.99276 -0.45929 0
M  V30 5359 H 505.702 3.5984 1.43506 0
M  V30 5360 H 506.116 5.24481 -0.0447088 0
M  V30 5361 H 507.59 5.26278 1.66539 0
M  V30 5362 H 508.067 3.71067 2.3496 0
M  V30 5363 H 508.673 4.18694 0.746662 0
M  V30 5364 N 506.988 0.0434614 1.5754 0
M  V30 5365 C 507.935 -0.93356 2.11077 0
M  V30 5366 C 508.905 -1.31383 1.01626 0
M  V30 5367 O 510.09 -1.40465 1.29129 0
M  V30 5368 C 507.23 -2.20578 2.65404 0
M  V30 5369 C 506.343 -1.88068 3.88914 0
M  V30 5370 C 505.478 -3.09691 4.31584 0
M  V30 5371 C 504.517 -2.73067 5.47815 0
M  V30 5372 N 503.654 -3.87359 5.85574 0
M  V30 5373 H 508.494 -0.470118 2.94268 0
M  V30 5374 H 506.031 -0.220434 1.45439 0
M  V30 5375 H 507.989 -2.95011 2.94999 0
M  V30 5376 H 506.619 -2.64513 1.85021 0
M  V30 5377 H 505.671 -1.03816 3.6596 0
M  V30 5378 H 506.983 -1.57104 4.73413 0
M  V30 5379 H 506.137 -3.92431 4.62691 0
M  V30 5380 H 504.876 -3.43827 3.45882 0
M  V30 5381 H 503.881 -1.88742 5.16388 0
M  V30 5382 H 505.106 -2.40131 6.35227 0
M  V30 5383 H 503.052 -4.21311 5.02825 0
M  V30 5384 H 502.969 -3.60068 6.64746 0
M  V30 5385 H 504.237 -4.70761 6.21292 0
M  V30 5386 N 508.466 -1.55915 -0.229846 0
M  V30 5387 C 509.396 -1.94754 -1.28815 0
M  V30 5388 C 510.377 -0.814657 -1.49323 0
M  V30 5389 O 511.562 -1.07631 -1.61645 0
M  V30 5390 C 508.692 -2.25705 -2.63959 0
M  V30 5391 C 507.646 -3.41406 -2.5812 0
M  V30 5392 C 506.972 -3.57941 -3.97218 0
M  V30 5393 C 508.272 -4.76616 -2.13623 0
M  V30 5394 H 509.966 -2.83404 -0.965547 0
M  V30 5395 H 507.512 -1.36353 -0.463028 0
M  V30 5396 H 509.465 -2.51467 -3.38146 0
M  V30 5397 H 508.189 -1.339 -2.9789 0
M  V30 5398 H 506.848 -3.1568 -1.86391 0
M  V30 5399 H 506.496 -2.63526 -4.28443 0
M  V30 5400 H 506.196 -4.35757 -3.94195 0
M  V30 5401 H 507.72 -3.86042 -4.73079 0
M  V30 5402 H 509.134 -5.01637 -2.77549 0
M  V30 5403 H 507.531 -5.57655 -2.21677 0
M  V30 5404 H 508.601 -4.7253 -1.08829 0
M  V30 5405 N 509.944 0.496216 -1.49584 0
M  V30 5406 C 511.19 1.25189 -1.59548 0
M  V30 5407 C 511.523 1.9212 -0.283466 0
M  V30 5408 O 510.798 1.80947 0.713324 0
M  V30 5409 C 511.081 2.31516 -2.75812 0
M  V30 5410 C 510.934 1.69054 -4.16822 0
M  V30 5411 C 512.253 3.3304 -2.87702 0
M  V30 5412 H 509.372 0.45379 -0.580727 0
M  V30 5413 H 512.014 0.549327 -1.81886 0
M  V30 5414 H 510.164 2.91438 -2.56897 0
M  V30 5415 H 511.836 1.12923 -4.47265 0
M  V30 5416 H 510.079 0.994485 -4.22247 0
M  V30 5417 H 510.75 2.462 -4.94054 0
M  V30 5418 H 513.226 2.83114 -3.04936 0
M  V30 5419 H 512.102 4.04794 -3.7072 0
M  V30 5420 H 512.363 3.95655 -1.97255 0
M  V30 5421 N 511.423 1.38739 0.74761 0
M  V30 5422 C 512.386 1.36241 1.84312 0
M  V30 5423 C 513.386 0.261811 1.58654 0
M  V30 5424 O 514.576 0.519031 1.66288 0
M  V30 5425 C 511.708 1.12253 3.21888 0
M  V30 5426 H 512.901 2.33712 1.87933 0
M  V30 5427 H 510.454 1.2412 0.949946 0
M  V30 5428 H 511.189 0.154133 3.23934 0
M  V30 5429 H 510.974 1.91943 3.41907 0
M  V30 5430 H 512.464 1.13215 4.0196 0
M  V30 5431 N 512.901 -0.976442 1.23707 0
M  V30 5432 C 513.849 -2.09078 1.01927 0
M  V30 5433 C 514.843 -1.69345 -0.0430193 0
M  V30 5434 O 516.049 -1.79659 0.110814 0
M  V30 5435 H 512.424 -0.68398 0.312531 0
M  V30 5436 H 514.395 -2.24614 1.96447 0
M  V30 5437 C 513.144 -3.41919 0.631385 0
M  V30 5438 H 512.467 -3.72946 1.44053 0
M  V30 5439 H 513.907 -4.20817 0.518532 0
M  V30 5440 C 512.366 -3.30357 -0.660723 0
M  V30 5441 O 512.896 -3.63542 -1.70881 0
M  V30 5442 N 511.102 -2.83507 -0.638139 0
M  V30 5443 H 510.649 -2.567 0.215108 0
M  V30 5444 H 510.607 -2.76153 -1.50289 0
M  V30 5445 N 514.379 -1.04941 -1.1758 0
M  V30 5446 C 515.289 -0.658826 -2.25159 0
M  V30 5447 C 516.305 0.318941 -1.71052 0
M  V30 5448 O 517.481 0.171669 -2.00667 0
M  V30 5449 C 514.546 -0.0369522 -3.4668 0
M  V30 5450 C 513.607 -1.06484 -4.15884 0
M  V30 5451 C 512.84 -0.472551 -5.31604 0
M  V30 5452 O 513.063 0.718736 -5.65854 0
M  V30 5453 O 511.997 -1.20557 -5.89703 0
M  V30 5454 H 515.823 -1.55533 -2.60851 0
M  V30 5455 H 513.408 -0.820819 -1.24832 0
M  V30 5456 H 515.29 0.308784 -4.20267 0
M  V30 5457 H 513.965 0.833238 -3.12792 0
M  V30 5458 H 512.872 -1.46253 -3.44327 0
M  V30 5459 H 514.205 -1.9061 -4.53794 0
M  V30 5460 N 515.857 1.33968 -0.830081 0
M  V30 5461 C 517.082 2.02813 -0.433796 0
M  V30 5462 C 517.507 1.62076 0.954614 0
M  V30 5463 O 516.865 0.808955 1.62252 0
M  V30 5464 C 516.913 3.56348 -0.552115 0
M  V30 5465 O 516.017 4.10202 0.425191 0
M  V30 5466 H 515.358 0.639817 -0.177567 0
M  V30 5467 H 517.888 1.7106 -1.12248 0
M  V30 5468 H 517.898 4.05722 -0.430513 0
M  V30 5469 H 516.573 3.85344 -1.56471 0
M  V30 5470 H 515.15 3.71979 0.261878 0
M  V30 5471 N 517.335 0.585699 1.46312 0
M  V30 5472 C 518.581 0.0725284 2.0267 0
M  V30 5473 C 518.914 -1.28523 1.45586 0
M  V30 5474 O 518.189 -1.84283 0.622101 0
M  V30 5475 C 518.472 0.0099788 3.60099 0
M  V30 5476 C 518.325 1.39685 4.27561 0
M  V30 5477 C 519.644 -0.689117 4.34671 0
M  V30 5478 H 516.763 0.0278307 0.736474 0
M  V30 5479 H 519.405 0.753472 1.74421 0
M  V30 5480 H 517.555 -0.56992 3.84297 0
M  V30 5481 H 519.227 2.02215 4.14617 0
M  V30 5482 H 517.47 1.96374 3.86807 0
M  V30 5483 H 518.141 1.30553 5.36339 0
M  V30 5484 H 520.617 -0.196446 4.15636 0
M  V30 5485 H 519.493 -0.701921 5.44393 0
M  V30 5486 H 519.754 -1.75101 4.05946 0
M  V30 5487 N 518.813 -1.54241 0.323641 0
M  V30 5488 C 520.224 -1.85975 -0.164405 0
M  V30 5489 C 520.575 -1.24529 -1.51615 0
M  V30 5490 O 519.7 -0.551351 -2.09258 0
M  V30 5491 C 520.295 -3.37424 -0.305091 0
M  V30 5492 C 518.854 -3.69107 -0.737358 0
M  V30 5493 C 518.001 -2.76942 0.140884 0
M  V30 5494 H 520.952 -1.49088 0.543922 0
M  V30 5495 H 520.973 -3.63147 -1.13598 0
M  V30 5496 H 520.485 -3.82116 0.678876 0
M  V30 5497 H 518.586 -3.29947 -1.73107 0
M  V30 5498 H 518.699 -4.76035 -0.541053 0
M  V30 5499 H 517.063 -2.51795 -0.383572 0
M  V30 5500 H 517.846 -3.24461 1.12162 0
M  V30 5501 N 520.291 -0.0518155 -1.57515 0
M  V30 5502 C 521.538 0.621823 -1.92716 0
M  V30 5503 C 521.866 1.70813 -0.930229 0
M  V30 5504 O 521.121 1.95616 0.0573708 0
M  V30 5505 C 521.42 1.25607 -3.34601 0
M  V30 5506 C 521.086 0.297901 -4.49915 0
M  V30 5507 C 519.748 0.034243 -4.81188 0
M  V30 5508 C 522.1 -0.358738 -5.19964 0
M  V30 5509 C 519.428 -0.893479 -5.79857 0
M  V30 5510 C 521.78 -1.27466 -6.19625 0
M  V30 5511 C 520.444 -1.54698 -6.49326 0
M  V30 5512 H 519.714 0.227541 -0.705199 0
M  V30 5513 H 522.361 -0.118432 -1.91133 0
M  V30 5514 H 520.666 2.07161 -3.32553 0
M  V30 5515 H 522.363 1.78424 -3.59118 0
M  V30 5516 H 518.953 0.513581 -4.25512 0
M  V30 5517 H 523.137 -0.168133 -4.96015 0
M  V30 5518 H 518.393 -1.11193 -6.01204 0
M  V30 5519 H 522.567 -1.78953 -6.73015 0
M  V30 5520 H 520.194 -2.26748 -7.25596 0
M  V30 5521 N 521.769 1.56035 0.221574 0
M  V30 5522 C 522.679 1.95581 1.29558 0
M  V30 5523 C 523.695 0.859639 1.51282 0
M  V30 5524 O 524.871 1.16321 1.64413 0
M  V30 5525 C 521.936 2.26447 2.62531 0
M  V30 5526 C 520.997 3.49632 2.4911 0
M  V30 5527 C 520.23 3.79017 3.75742 0
M  V30 5528 O 520.453 3.10077 4.78757 0
M  V30 5529 O 519.387 4.72507 3.72855 0
M  V30 5530 H 523.213 2.8711 0.990035 0
M  V30 5531 H 520.798 1.43244 0.424434 0
M  V30 5532 H 522.68 2.47494 3.41064 0
M  V30 5533 H 521.355 1.38092 2.92766 0
M  V30 5534 H 520.262 3.33864 1.68777 0
M  V30 5535 H 521.595 4.3837 2.23814 0
M  V30 5536 N 523.247 -0.488276 1.49845 0
M  V30 5537 C 524.475 -1.26527 1.63702 0
M  V30 5538 C 524.89 -1.8618 0.313447 0
M  V30 5539 O 524.247 -1.68432 -0.702624 0
M  V30 5540 C 524.298 -2.3864 2.71538 0
M  V30 5541 O 524.019 -1.81437 3.98763 0
M  V30 5542 C 525.52 -3.29805 2.96215 0
M  V30 5543 H 522.74 -0.383295 0.55075 0
M  V30 5544 H 525.284 -0.584779 1.95961 0
M  V30 5545 H 523.439 -3.02496 2.42023 0
M  V30 5546 H 523.853 -2.55135 4.58265 0
M  V30 5547 H 525.327 -4.04722 3.75372 0
M  V30 5548 H 525.804 -3.87563 2.06619 0
M  V30 5549 H 526.41 -2.71703 3.27196 0
M  V30 5550 N 524.725 -1.39134 -0.740242 0
M  V30 5551 C 525.95 -1.39518 -1.53459 0
M  V30 5552 C 526.375 0.00968883 -1.88098 0
M  V30 5553 O 525.733 0.995312 -1.51536 0
M  V30 5554 C 525.781 -2.26981 -2.802 0
M  V30 5555 O 524.885 -1.69609 -3.75908 0
M  V30 5556 H 524.226 -0.475328 -0.463637 0
M  V30 5557 H 526.756 -1.83064 -0.913717 0
M  V30 5558 H 526.766 -2.41309 -3.28989 0
M  V30 5559 H 525.441 -3.29081 -2.5432 0
M  V30 5560 H 524.018 -1.64495 -3.34658 0
M  V30 5561 N 526.204 0.969867 -1.24223 0
M  V30 5562 C 527.444 1.72754 -1.0925 0
M  V30 5563 C 527.808 1.88541 0.362787 0
M  V30 5564 O 529.009 2.61217 0.633969 0
M  V30 5565 C 527.28 3.08204 -1.80957 0
M  V30 5566 S 528.839 3.99418 -1.81688 0
M  V30 5567 H 525.657 0.593981 -0.390778 0
M  V30 5568 H 528.259 1.15792 -1.5752 0
M  V30 5569 H 526.963 2.94372 -2.85961 0
M  V30 5570 H 526.494 3.70232 -1.33012 0
M  V30 5571 H 528.509 4.8828 -0.883001 0
M  V30 5572 N 527.682 1.05563 1.17022 0
M  V30 5573 C 529.098 0.777684 1.39371 0
M  V30 5574 C 529.298 -0.626269 1.91521 0
M  V30 5575 O 528.354 -1.38806 2.10924 0
M  V30 5576 C 529.667 1.83642 2.3811 0
M  V30 5577 C 531.215 1.85907 2.51809 0
M  V30 5578 C 531.69 2.90813 3.53824 0
M  V30 5579 N 533.181 2.898 3.61345 0
M  V30 5580 C 533.916 3.6762 4.40049 0
M  V30 5581 N 533.412 4.55237 5.22237 0
M  V30 5582 N 535.205 3.56044 4.34959 0
M  V30 5583 H 527.356 1.9614 0.815047 0
M  V30 5584 H 529.619 0.849527 0.420722 0
M  V30 5585 H 529.325 2.84425 2.06871 0
M  V30 5586 H 529.199 1.6812 3.37662 0
M  V30 5587 H 531.586 0.857865 2.82356 0
M  V30 5588 H 531.667 2.05506 1.52318 0
M  V30 5589 H 531.311 3.91122 3.24015 0
M  V30 5590 H 531.241 2.68465 4.53028 0
M  V30 5591 H 533.732 2.26274 3.02669 0
M  V30 5592 H 534.045 5.11291 5.79484 0
M  V30 5593 H 532.39 4.59296 5.21605 0
M  V30 5594 H 535.581 2.86986 3.69806 0
M  V30 5595 H 535.754 4.16938 4.96051 0
M  V30 5596 N 529.16 -1.33526 0.837174 0
M  V30 5597 C 530.39 -2.01754 0.444848 0
M  V30 5598 C 530.798 -1.63149 -0.958072 0
M  V30 5599 O 530.141 -0.839827 -1.63379 0
M  V30 5600 C 530.203 -3.56228 0.483917 0
M  V30 5601 C 529.867 -4.18205 1.84265 0
M  V30 5602 C 530.864 -4.37699 2.80563 0
M  V30 5603 C 528.549 -4.54667 2.13503 0
M  V30 5604 C 530.543 -4.928 4.04261 0
M  V30 5605 C 528.23 -5.09475 3.37458 0
M  V30 5606 C 529.228 -5.28488 4.32654 0
M  V30 5607 O 528.916 -5.82132 5.54417 0
M  V30 5608 H 528.648 -0.652928 0.175104 0
M  V30 5609 H 531.202 -1.71469 1.13082 0
M  V30 5610 H 529.432 -3.85833 -0.258826 0
M  V30 5611 H 531.121 -4.05752 0.109653 0
M  V30 5612 H 531.887 -4.0988 2.59274 0
M  V30 5613 H 527.766 -4.39164 1.40201 0
M  V30 5614 H 531.31 -5.07555 4.78574 0
M  V30 5615 H 527.207 -5.36725 3.58604 0
M  V30 5616 H 527.975 -6.00548 5.56133 0
M  V30 5617 N 530.638 -0.59345 -1.46 0
M  V30 5618 C 531.571 0.182196 -2.27472 0
M  V30 5619 C 532.549 0.886901 -1.36282 0
M  V30 5620 O 533.733 0.898627 -1.65701 0
M  V30 5621 C 530.86 1.26236 -3.14296 0
M  V30 5622 C 529.906 0.662331 -4.21326 0
M  V30 5623 S 530.739 -0.519017 -5.32979 0
M  V30 5624 C 531.895 0.562086 -6.23371 0
M  V30 5625 H 532.128 -0.509056 -2.92909 0
M  V30 5626 H 529.661 -0.380607 -1.49635 0
M  V30 5627 H 531.619 1.88075 -3.64881 0
M  V30 5628 H 530.28 1.92562 -2.48151 0
M  V30 5629 H 529.473 1.47461 -4.81945 0
M  V30 5630 H 529.075 0.119381 -3.73809 0
M  V30 5631 H 531.367 1.44494 -6.61912 0
M  V30 5632 H 532.31 -0.00760776 -7.081 0
M  V30 5633 H 532.718 0.871061 -5.57739 0
M  V30 5634 N 532.116 1.54067 -0.331816 0
M  V30 5635 C 533.344 2.05131 0.269996 0
M  V30 5636 C 533.759 1.20749 1.45138 0
M  V30 5637 O 533.116 0.240069 1.80914 0
M  V30 5638 C 533.167 3.54728 0.696456 0
M  V30 5639 O 532.888 4.35906 -0.43794 0
M  V30 5640 C 534.389 4.21916 1.36021 0
M  V30 5641 H 531.609 0.668807 0.0542042 0
M  V30 5642 H 534.153 1.98777 -0.4804 0
M  V30 5643 H 532.308 3.61342 1.39681 0
M  V30 5644 H 532.722 5.24404 -0.100334 0
M  V30 5645 H 534.196 5.28015 1.60947 0
M  V30 5646 H 534.673 3.73538 2.31011 0
M  V30 5647 H 535.279 4.19463 0.702212 0
M  V30 5648 N 533.594 0.0601682 1.57485 0
M  V30 5649 C 534.84 -0.612501 1.93329 0
M  V30 5650 C 535.173 -1.6996 0.939526 0
M  V30 5651 O 534.448 -1.94472 -0.0330957 0
M  V30 5652 C 534.731 -1.20025 3.39508 0
M  V30 5653 C 534.584 -0.12059 4.49638 0
M  V30 5654 C 535.903 -2.10923 3.86264 0
M  V30 5655 H 533.022 -0.221185 0.703027 0
M  V30 5656 H 535.664 0.123768 1.89596 0
M  V30 5657 H 533.814 -1.82774 3.42821 0
M  V30 5658 H 535.486 0.51185 4.58452 0
M  V30 5659 H 533.729 0.550251 4.30296 0
M  V30 5660 H 534.4 -0.572019 5.49028 0
M  V30 5661 H 536.876 -1.58124 3.84884 0
M  V30 5662 H 535.752 -2.48987 4.8918 0
M  V30 5663 H 536.013 -3.01292 3.23536 0
M  V30 5664 N 535.072 -1.5615 -0.213296 0
M  V30 5665 C 536.002 -1.96109 -1.26742 0
M  V30 5666 C 536.983 -0.830448 -1.48451 0
M  V30 5667 O 538.168 -1.09339 -1.60495 0
M  V30 5668 C 535.298 -2.28492 -2.61551 0
M  V30 5669 C 534.252 -3.44124 -2.54485 0
M  V30 5670 C 533.578 -3.62134 -3.93399 0
M  V30 5671 C 534.878 -4.78855 -2.08556 0
M  V30 5672 H 536.572 -2.84412 -0.935434 0
M  V30 5673 H 534.118 -1.36836 -0.44854 0
M  V30 5674 H 536.071 -2.55039 -3.3546 0
M  V30 5675 H 534.795 -1.37052 -2.96453 0
M  V30 5676 H 533.454 -3.17639 -1.83033 0
M  V30 5677 H 533.102 -2.68055 -4.25623 0
M  V30 5678 H 532.802 -4.39913 -3.89551 0
M  V30 5679 H 534.326 -3.91038 -4.68958 0
M  V30 5680 H 535.74 -5.04552 -2.72213 0
M  V30 5681 H 534.137 -5.59975 -2.1575 0
M  V30 5682 H 535.207 -4.73657 -1.03811 0
M  V30 5683 N 536.55 0.480323 -1.50102 0
M  V30 5684 C 537.797 1.23307 -1.60629 0
M  V30 5685 C 538.125 1.92135 -0.302375 0
M  V30 5686 O 537.38 1.82321 0.711154 0
M  V30 5687 C 537.679 2.30708 -2.72963 0
M  V30 5688 C 537.345 1.79195 -4.13763 0
M  V30 5689 C 536.007 1.64867 -4.52076 0
M  V30 5690 C 538.359 1.40878 -5.018 0
M  V30 5691 C 535.687 1.10631 -5.76175 0
M  V30 5692 C 538.039 0.880872 -6.26437 0
M  V30 5693 C 536.703 0.724146 -6.6356 0
M  V30 5694 H 535.973 0.451211 -0.587784 0
M  V30 5695 H 538.62 0.53051 -1.84005 0
M  V30 5696 H 536.925 3.06834 -2.43639 0
M  V30 5697 H 538.622 2.88692 -2.78313 0
M  V30 5698 H 535.212 1.91313 -3.83533 0
M  V30 5699 H 539.396 1.50786 -4.7284 0
M  V30 5700 H 534.652 0.972263 -6.0362 0
M  V30 5701 H 538.826 0.575269 -6.9402 0
M  V30 5702 H 536.453 0.301722 -7.59601 0
M  V30 5703 N 538.028 1.39524 0.732853 0
M  V30 5704 C 539.258 1.3994 1.51988 0
M  V30 5705 C 539.666 -0.00727973 1.89199 0
M  V30 5706 O 539.009 -0.989521 1.54771 0
M  V30 5707 C 539.071 2.21026 2.83527 0
M  V30 5708 C 538.735 3.69633 2.68738 0
M  V30 5709 C 539.732 4.62665 2.37143 0
M  V30 5710 C 537.417 4.13244 2.85542 0
M  V30 5711 C 539.411 5.97291 2.22536 0
M  V30 5712 C 537.098 5.47945 2.70554 0
M  V30 5713 C 538.096 6.39783 2.39097 0
M  V30 5714 O 537.784 7.72002 2.24204 0
M  V30 5715 H 537.516 0.479795 0.476206 0
M  V30 5716 H 540.07 1.8399 0.913054 0
M  V30 5717 H 538.3 1.71728 3.46477 0
M  V30 5718 H 539.989 2.13594 3.45156 0
M  V30 5719 H 540.755 4.30272 2.2381 0
M  V30 5720 H 536.634 3.42094 3.09019 0
M  V30 5721 H 540.178 6.68939 1.97905 0
M  V30 5722 H 536.075 5.79928 2.83466 0
M  V30 5723 H 536.843 7.8275 2.39258 0
M  V30 5724 N 539.506 -0.963266 1.24736 0
M  V30 5725 C 540.436 -2.07628 1.06832 0
M  V30 5726 C 541.417 -1.70088 -0.0200566 0
M  V30 5727 O 542.602 -1.93636 0.147854 0
M  V30 5728 C 539.732 -3.40636 0.677069 0
M  V30 5729 C 538.686 -3.9215 1.71471 0
M  V30 5730 C 538.012 -5.21553 1.1784 0
M  V30 5731 C 539.312 -4.19493 3.11164 0
M  V30 5732 H 541.006 -2.22864 1.9993 0
M  V30 5733 H 538.552 -1.07093 0.96266 0
M  V30 5734 H 540.505 -4.17941 0.538792 0
M  V30 5735 H 539.229 -3.25313 -0.289612 0
M  V30 5736 H 537.888 -3.17005 1.84128 0
M  V30 5737 H 537.536 -5.02593 0.202195 0
M  V30 5738 H 537.236 -5.56988 1.87185 0
M  V30 5739 H 538.76 -6.01463 1.05233 0
M  V30 5740 H 540.174 -4.87487 3.01711 0
M  V30 5741 H 538.571 -4.66165 3.77902 0
M  V30 5742 H 539.641 -3.26097 3.58871 0
M  V30 5743 N 540.985 -1.06182 -1.16461 0
M  V30 5744 C 541.933 -0.665716 -2.2287 0
M  V30 5745 C 542.927 0.317822 -1.66392 0
M  V30 5746 O 544.133 0.182807 -1.79069 0
M  V30 5747 H 540.508 -0.197148 -0.725697 0
M  V30 5748 H 542.479 -1.57307 -2.53569 0
M  V30 5749 C 541.228 -0.0669803 -3.47635 0
M  V30 5750 H 540.551 -0.814899 -3.91407 0
M  V30 5751 H 541.991 0.172669 -4.23648 0
M  V30 5752 C 540.45 1.18913 -3.15216 0
M  V30 5753 O 540.98 2.27723 -3.30916 0
M  V30 5754 N 539.186 1.09066 -2.69357 0
M  V30 5755 H 538.733 0.20518 -2.56782 0
M  V30 5756 H 538.691 1.93195 -2.48039 0
M  V30 5757 N 542.463 1.3308 -0.844243 0
M  V30 5758 C 543.411 2.31028 -0.269954 0
M  V30 5759 C 544.405 1.58381 0.600997 0
M  V30 5760 O 545.611 1.73203 0.48996 0
M  V30 5761 H 541.986 0.748866 -0.0685782 0
M  V30 5762 H 543.957 2.76967 -1.11049 0
M  V30 5763 C 542.706 3.43549 0.535676 0
M  V30 5764 H 542.029 3.99604 -0.125202 0
M  V30 5765 H 543.469 4.14267 0.903262 0
M  V30 5766 C 541.928 2.8988 1.71672 0
M  V30 5767 O 542.458 2.86511 2.81557 0
M  V30 5768 N 540.664 2.46416 1.54037 0
M  V30 5769 H 540.211 2.49356 0.64649 0
M  V30 5770 H 540.169 2.1086 2.33207 0
M  V30 5771 N 543.941 0.601185 1.45683 0
M  V30 5772 C 545.187 0.0940202 2.02582 0
M  V30 5773 C 545.52 -1.26972 1.46941 0
M  V30 5774 O 544.795 -1.83613 0.641612 0
M  V30 5775 C 545.078 0.0481715 3.60068 0
M  V30 5776 C 544.931 1.44212 4.26055 0
M  V30 5777 C 546.25 -0.642975 4.35378 0
M  V30 5778 H 543.369 0.0356404 0.736138 0
M  V30 5779 H 546.011 0.771929 1.73612 0
M  V30 5780 H 544.161 -0.529128 3.8488 0
M  V30 5781 H 545.833 2.06601 4.12449 0
M  V30 5782 H 544.076 2.00465 3.84703 0
M  V30 5783 H 544.747 1.36234 5.34925 0
M  V30 5784 H 547.223 -0.152351 4.15821 0
M  V30 5785 H 546.099 -0.644141 5.45107 0
M  V30 5786 H 546.36 -1.70785 4.0778 0
M  V30 5787 N 545.419 -1.53889 0.339982 0
M  V30 5788 C 546.647 -2.05271 -0.259114 0
M  V30 5789 C 547.062 -1.21517 -1.44496 0
M  V30 5790 O 546.419 -0.24966 -1.80784 0
M  V30 5791 C 546.47 -3.55092 -0.677634 0
M  V30 5792 O 546.191 -4.35667 0.461051 0
M  V30 5793 C 547.692 -4.22631 -1.33782 0
M  V30 5794 H 544.912 -0.669085 -0.0506566 0
M  V30 5795 H 547.456 -1.9852 0.490935 0
M  V30 5796 H 545.611 -3.62077 -1.37763 0
M  V30 5797 H 546.025 -5.24343 0.128144 0
M  V30 5798 H 547.499 -5.28861 -1.58145 0
M  V30 5799 H 547.976 -3.74758 -2.29027 0
M  V30 5800 H 548.582 -4.19829 -0.679957 0
M  V30 5801 N 546.897 -0.0685191 -1.57451 0
M  V30 5802 C 548.145 0.60016 -1.92983 0
M  V30 5803 C 548.466 1.70348 -0.949028 0
M  V30 5804 O 547.736 1.959 0.00335647 0
M  V30 5805 H 546.316 0.224682 -0.712409 0
M  V30 5806 H 548.978 -0.125605 -1.94495 0
M  V30 5807 H 548.074 1.02759 -2.94698 0
M  V30 5808 N 548.375 1.56261 0.205012 0
M  V30 5809 C 549.623 1.79684 0.925096 0
M  V30 5810 C 549.944 0.63989 1.84202 0
M  V30 5811 O 549.214 -0.342345 1.92885 0
M  V30 5812 H 547.794 0.662774 0.344587 0
M  V30 5813 H 550.456 1.93734 0.212899 0
M  V30 5814 H 549.552 2.72467 1.52211 0
M  V30 5815 N 549.853 -0.472356 1.50355 0
M  V30 5816 C 551.101 -1.22211 1.60962 0
M  V30 5817 C 551.422 -1.92497 0.311439 0
M  V30 5818 O 550.692 -1.8405 -0.671002 0
M  V30 5819 H 549.272 -0.454092 0.593135 0
M  V30 5820 H 551.934 -0.544977 1.87126 0
M  V30 5821 H 551.03 -1.9707 2.42012 0
M  V30 5822 N 551.331 -1.39911 -0.725443 0
M  V30 5823 C 552.241 -1.41688 -1.8698 0
M  V30 5824 C 553.257 -0.310579 -1.71206 0
M  V30 5825 O 554.433 -0.55359 -1.93642 0
M  V30 5826 C 551.498 -1.26811 -3.22676 0
M  V30 5827 C 550.559 -2.47497 -3.50776 0
M  V30 5828 C 549.792 -2.3332 -4.79997 0
M  V30 5829 O 550.015 -1.34175 -5.54394 0
M  V30 5830 O 548.949 -3.22498 -5.08211 0
M  V30 5831 H 552.775 -2.38171 -1.88436 0
M  V30 5832 H 550.36 -1.21128 -0.874548 0
M  V30 5833 H 552.242 -1.20684 -4.03749 0
M  V30 5834 H 550.917 -0.334289 -3.21969 0
M  V30 5835 H 549.824 -2.59201 -2.69751 0
M  V30 5836 H 551.157 -3.39606 -3.5627 0
M  V30 5837 N 552.809 0.956637 -1.25245 0
M  V30 5838 C 554.037 1.73571 -1.12608 0
M  V30 5839 C 554.452 1.86063 0.320324 0
M  V30 5840 O 553.809 1.35691 1.22042 0
M  V30 5841 C 553.86 3.15053 -1.77268 0
M  V30 5842 O 553.581 3.03174 -3.16255 0
M  V30 5843 C 555.082 4.09248 -1.70386 0
M  V30 5844 H 552.302 0.543955 -0.392879 0
M  V30 5845 H 554.846 1.20031 -1.65568 0
M  V30 5846 H 553.001 3.65543 -1.28284 0
M  V30 5847 H 553.415 3.9241 -3.48015 0
M  V30 5848 H 554.889 5.06138 -2.20291 0
M  V30 5849 H 555.366 4.34102 -0.667239 0
M  V30 5850 H 555.972 3.64672 -2.18849 0
M  V30 5851 N 554.287 1.06798 1.15896 0
M  V30 5852 C 555.533 0.788934 1.86825 0
M  V30 5853 C 555.866 -0.683084 1.8179 0
M  V30 5854 O 555.141 -1.50086 1.23711 0
M  V30 5855 C 555.424 1.29065 3.36176 0
M  V30 5856 C 555.277 2.8268 3.49874 0
M  V30 5857 C 556.596 0.902655 4.30744 0
M  V30 5858 H 553.715 0.288066 0.678371 0
M  V30 5859 H 556.357 1.32479 1.36195 0
M  V30 5860 H 554.507 0.834806 3.79425 0
M  V30 5861 H 556.179 3.36511 3.15528 0
M  V30 5862 H 554.422 3.21157 2.91617 0
M  V30 5863 H 555.093 3.12852 4.54783 0
M  V30 5864 H 557.569 1.29535 3.95424 0
M  V30 5865 H 556.445 1.28111 5.3374 0
M  V30 5866 H 556.706 -0.191951 4.41683 0
M  V30 5867 N 555.766 -1.3263 0.851289 0
M  V30 5868 C 557.013 -1.97368 0.453023 0
M  V30 5869 C 557.341 -1.67384 -0.990596 0
M  V30 5870 O 556.596 -0.952665 -1.70947 0
M  V30 5871 C 556.895 -3.51713 0.635015 0
M  V30 5872 C 556.561 -4.01676 2.04859 0
M  V30 5873 C 555.223 -4.15031 2.43522 0
M  V30 5874 C 557.575 -4.28206 2.97135 0
M  V30 5875 C 554.903 -4.52257 3.73739 0
M  V30 5876 C 557.255 -4.66889 4.26846 0
M  V30 5877 C 555.919 -4.7845 4.65448 0
M  V30 5878 H 555.189 -0.722219 0.165773 0
M  V30 5879 H 557.836 -1.58092 1.0807 0
M  V30 5880 H 556.141 -3.91726 -0.0759081 0
M  V30 5881 H 557.838 -3.99823 0.306964 0
M  V30 5882 H 554.428 -3.91764 1.73836 0
M  V30 5883 H 558.612 -4.174 2.68498 0
M  V30 5884 H 553.868 -4.59402 4.03435 0
M  V30 5885 H 558.042 -4.86372 4.98413 0
M  V30 5886 H 555.669 -5.07052 5.66395 0
M  V30 5887 N 557.244 -0.608902 -1.45362 0
M  V30 5888 C 558.655 -0.189511 -1.85736 0
M  V30 5889 C 559.006 1.2539 -1.50903 0
M  V30 5890 O 558.131 1.95094 -0.936347 0
M  V30 5891 C 558.726 -0.33716 -3.37118 0
M  V30 5892 C 557.285 0.0275487 -3.7639 0
M  V30 5893 C 556.432 -0.660983 -2.69307 0
M  V30 5894 H 559.383 -0.815499 -1.36144 0
M  V30 5895 H 559.404 0.430257 -3.7806 0
M  V30 5896 H 558.916 -1.38779 -3.62439 0
M  V30 5897 H 557.017 1.0773 -3.56686 0
M  V30 5898 H 557.13 -0.367018 -4.77692 0
M  V30 5899 H 555.494 -0.0984958 -2.54509 0
M  V30 5900 H 556.277 -1.71377 -2.97464 0
M  V30 5901 N 558.722 1.53707 -0.348139 0
M  V30 5902 C 559.968 2.01286 0.247332 0
M  V30 5903 C 560.301 1.23546 1.49834 0
M  V30 5904 O 559.576 0.324331 1.91777 0
M  V30 5905 C 559.859 3.55768 0.556858 0
M  V30 5906 C 559.712 4.44216 -0.706564 0
M  V30 5907 C 561.031 4.1841 1.3646 0
M  V30 5908 H 558.15 0.731677 0.0884201 0
M  V30 5909 H 560.792 1.84106 -0.469584 0
M  V30 5910 H 558.942 3.70539 1.16761 0
M  V30 5911 H 560.614 4.41274 -1.34444 0
M  V30 5912 H 558.857 4.12892 -1.33052 0
M  V30 5913 H 559.528 5.50202 -0.445186 0
M  V30 5914 H 562.004 4.07365 0.848113 0
M  V30 5915 H 560.88 5.26563 1.54992 0
M  V30 5916 H 561.141 3.7333 2.36805 0
M  V30 5917 N 560.2 0.0768682 1.57412 0
M  V30 5918 C 561.163 -0.873949 2.11884 0
M  V30 5919 C 562.163 -1.22301 1.04398 0
M  V30 5920 O 563.353 -1.15545 1.30365 0
M  V30 5921 C 560.485 -2.17575 2.62438 0
M  V30 5922 H 561.678 -0.401278 2.97203 0
M  V30 5923 H 559.231 -0.171904 1.55352 0
M  V30 5924 H 559.966 -2.69368 1.80587 0
M  V30 5925 H 559.751 -1.93534 3.41009 0
M  V30 5926 H 561.241 -2.85631 3.04639 0
M  V30 5927 N 561.678 -1.56367 -0.196722 0
M  V30 5928 C 562.955 -1.71359 -0.943159 0
M  V30 5929 C 563.335 -0.631192 -2.01443 0
M  V30 5930 O 562.683 0.358071 -2.25677 0
M  V30 5931 C 562.893 -3.13623 -1.53106 0
M  V30 5932 C 564.241 -3.73806 -2.01381 0
M  V30 5933 O 565.265 -3.16742 -1.62951 0
M  V30 5934 O 564.124 -4.73951 -2.7209 0
M  V30 5935 H 561.218 -0.698851 -0.442195 0
M  V30 5936 H 563.764 -1.68672 -0.186547 0
M  V30 5937 H 562.536 -3.83873 -0.758785 0
M  V30 5938 H 562.159 -3.20532 -2.35255 0
M  V30 5939 N 563.156 0.464375 -1.50603 0
M  V30 5940 C 564.104 1.58224 -1.70493 0
M  V30 5941 C 565.098 1.59492 -0.570836 0
M  V30 5942 O 566.304 1.63561 -0.751517 0
M  V30 5943 H 562.679 0.525161 -0.538247 0
M  V30 5944 H 564.65 1.38613 -2.64252 0
M  V30 5945 C 563.399 2.96113 -1.82243 0
M  V30 5946 H 562.722 2.95858 -2.68901 0
M  V30 5947 H 564.162 3.73769 -2.00182 0
M  V30 5948 C 562.621 3.31946 -0.575628 0
M  V30 5949 O 563.151 4.00708 0.282152 0
M  V30 5950 N 561.357 2.87436 -0.427665 0
M  V30 5951 H 560.904 2.31652 -1.12674 0
M  V30 5952 H 560.862 3.11776 0.405379 0
M  V30 5953 N 564.634 1.40294 0.718013 0
M  V30 5954 C 566.05 1.2227 1.02577 0
M  V30 5955 C 566.25 0.0961976 2.0127 0
M  V30 5956 O 565.306 -0.546695 2.46511 0
M  V30 5957 C 566.619 2.56348 1.57182 0
M  V30 5958 C 568.167 2.6334 1.69178 0
M  V30 5959 C 568.642 3.9768 2.27188 0
M  V30 5960 N 570.133 3.99409 2.34578 0
M  V30 5961 C 570.868 5.00141 2.8044 0
M  V30 5962 N 570.364 6.11268 3.26073 0
M  V30 5963 N 572.157 4.87511 2.79802 0
M  V30 5964 H 564.308 2.12304 0.0637899 0
M  V30 5965 H 566.571 0.943632 0.0909036 0
M  V30 5966 H 566.277 3.3942 0.921262 0
M  V30 5967 H 566.151 2.77266 2.55741 0
M  V30 5968 H 568.538 1.80641 2.33351 0
M  V30 5969 H 568.619 2.46255 0.692247 0
M  V30 5970 H 568.263 4.80817 1.63638 0
M  V30 5971 H 568.193 4.12093 3.27852 0
M  V30 5972 H 570.684 3.19162 2.02346 0
M  V30 5973 H 570.997 6.84023 3.59628 0
M  V30 5974 H 569.342 6.14837 3.24038 0
M  V30 5975 H 572.533 3.9979 2.43487 0
M  V30 5976 H 572.706 5.66158 3.15228 0
M  V30 5977 N 566.112 -0.949982 1.2575 0
M  V30 5978 C 567.34 -1.72972 1.13527 0
M  V30 5979 C 567.755 -1.8623 -0.310453 0
M  V30 5980 O 567.112 -1.36336 -1.2132 0
M  V30 5981 C 567.163 -3.14108 1.78936 0
M  V30 5982 O 566.884 -3.01493 3.17858 0
M  V30 5983 C 568.385 -4.08338 1.72554 0
M  V30 5984 H 565.605 -0.541864 0.395758 0
M  V30 5985 H 568.149 -1.19151 1.66202 0
M  V30 5986 H 566.304 -3.64858 1.30221 0
M  V30 5987 H 566.718 -3.90559 3.50092 0
M  V30 5988 H 568.192 -5.04963 2.22973 0
M  V30 5989 H 568.669 -4.33742 0.690251 0
M  V30 5990 H 569.275 -3.63506 2.2078 0
M  V30 5991 N 567.59 -1.07411 -1.15328 0
M  V30 5992 C 568.82 -0.817595 -1.89734 0
M  V30 5993 C 569.228 0.63297 -1.78298 0
M  V30 5994 O 568.571 1.44594 -1.13306 0
M  V30 5995 C 568.633 -1.14748 -3.40695 0
M  V30 5996 C 568.297 -2.59876 -3.75917 0
M  V30 5997 C 569.294 -3.58122 -3.76888 0
M  V30 5998 C 566.979 -2.95469 -4.06206 0
M  V30 5999 C 568.973 -4.89996 -4.07655 0
M  V30 6000 C 566.66 -4.2754 -4.36638 0
M  V30 6001 C 567.658 -5.24614 -4.37344 0
M  V30 6002 O 567.346 -6.54312 -4.67045 0
M  V30 6003 H 567.078 -0.295175 -0.608151 0
M  V30 6004 H 569.632 -1.43409 -1.47048 0
M  V30 6005 H 567.862 -0.47395 -3.83785 0
M  V30 6006 H 569.551 -0.873397 -3.96392 0
M  V30 6007 H 570.317 -3.31966 -3.53587 0
M  V30 6008 H 566.196 -2.20558 -4.04815 0
M  V30 6009 H 569.74 -5.65759 -4.08121 0
M  V30 6010 H 565.637 -4.53449 -4.59407 0
M  V30 6011 H 566.405 -6.59473 -4.84807 0
M  V30 6012 N 569.068 1.32177 -0.85831 0
M  V30 6013 C 570.345 1.91781 -0.384624 0
M  V30 6014 C 570.725 1.78171 1.13217 0
M  V30 6015 O 570.073 1.18209 1.95548 0
M  V30 6016 C 570.283 3.38414 -0.853047 0
M  V30 6017 C 571.631 4.15542 -0.872359 0
M  V30 6018 O 572.655 3.47148 -0.797926 0
M  V30 6019 O 571.514 5.37678 -0.978009 0
M  V30 6020 H 568.608 0.819259 -0.112886 0
M  V30 6021 H 571.154 1.40923 -0.945453 0
M  V30 6022 H 569.926 3.4228 -1.89632 0
M  V30 6023 H 569.549 3.96683 -0.269874 0
M  V30 6024 N 570.547 0.616602 1.45037 0
M  V30 6025 C 571.457 -0.0985401 2.34393 0
M  V30 6026 C 572.473 -0.850971 1.51771 0
M  V30 6027 O 573.649 -0.806521 1.84546 0
M  V30 6028 C 570.714 -1.07748 3.29532 0
M  V30 6029 C 569.775 -0.326022 4.2806 0
M  V30 6030 C 569.008 -1.25833 5.18654 0
M  V30 6031 O 569.231 -2.49652 5.12864 0
M  V30 6032 O 568.165 -0.750512 5.97203 0
M  V30 6033 H 571.991 0.636016 2.96966 0
M  V30 6034 H 569.576 0.376832 1.44569 0
M  V30 6035 H 571.458 -1.64107 3.88133 0
M  V30 6036 H 570.133 -1.79291 2.69512 0
M  V30 6037 H 569.04 0.280253 3.73049 0
M  V30 6038 H 570.373 0.349091 4.9096 0
M  V30 6039 N 572.025 -1.5352 0.356285 0
M  V30 6040 C 572.958 -2.2177 -0.537913 0
M  V30 6041 C 573.936 -1.20626 -1.09033 0
M  V30 6042 O 575.12 -1.49494 -1.1482 0
M  V30 6043 C 572.247 -2.90513 -1.74126 0
M  V30 6044 C 571.293 -4.05652 -1.31715 0
M  V30 6045 S 572.126 -5.34505 -0.326236 0
M  V30 6046 C 573.282 -6.06757 -1.53612 0
M  V30 6047 H 573.515 -2.97271 0.0417411 0
M  V30 6048 H 571.048 -1.53761 0.140372 0
M  V30 6049 H 573.006 -3.30735 -2.43155 0
M  V30 6050 H 571.667 -2.14754 -2.29215 0
M  V30 6051 H 570.86 -4.52733 -2.21471 0
M  V30 6052 H 570.462 -3.67272 -0.706183 0
M  V30 6053 H 572.754 -6.30924 -2.46863 0
M  V30 6054 H 573.697 -6.99395 -1.10687 0
M  V30 6055 H 574.105 -5.3708 -1.73796 0
M  V30 6056 N 573.503 -0.0852151 -1.57369 0
M  V30 6057 C 574.728 0.592872 -1.98746 0
M  V30 6058 C 575.153 1.61538 -0.963689 0
M  V30 6059 O 574.511 1.81168 0.069071 0
M  V30 6060 C 574.559 1.22599 -3.39119 0
M  V30 6061 O 573.663 2.34185 -3.39457 0
M  V30 6062 H 573.004 0.151314 -0.646529 0
M  V30 6063 H 575.534 -0.163703 -2.03944 0
M  V30 6064 H 575.544 1.56965 -3.76598 0
M  V30 6065 H 574.219 0.476831 -4.13158 0
M  V30 6066 H 572.796 2.01512 -3.13763 0
M  V30 6067 N 574.981 1.5647 0.188427 0
M  V30 6068 C 575.911 1.98101 1.23606 0
M  V30 6069 C 576.892 0.853961 1.47111 0
M  V30 6070 O 578.077 1.11879 1.58735 0
M  V30 6071 C 575.207 2.32624 2.57882 0
M  V30 6072 C 574.161 3.48129 2.48978 0
M  V30 6073 C 573.487 3.68347 3.87588 0
M  V30 6074 C 574.787 4.82112 2.00911 0
M  V30 6075 H 576.481 2.85864 0.890068 0
M  V30 6076 H 574.027 1.37532 0.426714 0
M  V30 6077 H 575.98 2.60343 3.3136 0
M  V30 6078 H 574.704 1.41751 2.94235 0
M  V30 6079 H 573.363 3.20511 1.77956 0
M  V30 6080 H 573.011 2.74793 4.21305 0
M  V30 6081 H 572.711 4.46055 3.82503 0
M  V30 6082 H 574.235 3.98449 4.62678 0
M  V30 6083 H 575.649 5.08819 2.64151 0
M  V30 6084 H 574.046 5.63337 2.06814 0
M  V30 6085 H 575.116 4.75249 0.96262 0
M  V30 6086 N 576.459 -0.456382 1.50847 0
M  V30 6087 C 577.708 -1.2042 1.61808 0
M  V30 6088 C 578.021 -1.9278 0.330932 0
M  V30 6089 O 579.227 -2.69612 0.319643 0
M  V30 6090 C 577.683 -2.18891 2.85683 0
M  V30 6091 C 577.291 -1.52267 4.2133 0
M  V30 6092 C 579.035 -2.94224 3.05994 0
M  V30 6093 C 576.942 -2.4911 5.36375 0
M  V30 6094 H 575.872 -0.453177 0.602616 0
M  V30 6095 H 578.523 -0.473144 1.77295 0
M  V30 6096 H 576.905 -2.95351 2.63787 0
M  V30 6097 H 578.079 -0.814949 4.53536 0
M  V30 6098 H 576.394 -0.891594 4.06743 0
M  V30 6099 H 578.991 -3.66732 3.89117 0
M  V30 6100 H 579.334 -3.54469 2.18306 0
M  V30 6101 H 579.867 -2.24874 3.28141 0
M  V30 6102 H 576.606 -1.93582 6.26264 0
M  V30 6103 H 576.126 -3.17991 5.08569 0
M  V30 6104 H 577.805 -3.10637 5.67551 0
M  V30 6105 N 577.937 -1.40673 -0.710563 0
M  V30 6106 C 578.869 -1.37256 -1.83558 0
M  V30 6107 C 579.882 -0.277133 -1.60424 0
M  V30 6108 O 581.071 -0.537831 -1.70205 0
M  V30 6109 C 578.171 -1.1144 -3.20054 0
M  V30 6110 C 577.344 -2.32734 -3.70342 0
M  V30 6111 C 576.403 -2.03002 -4.85465 0
M  V30 6112 O 575.429 -2.75912 -4.97857 0
M  V30 6113 N 576.631 -1.01105 -5.71627 0
M  V30 6114 H 579.396 -2.34215 -1.86985 0
M  V30 6115 H 576.957 -1.35091 -0.892301 0
M  V30 6116 H 578.949 -0.895265 -3.94673 0
M  V30 6117 H 577.519 -0.231307 -3.11743 0
M  V30 6118 H 576.739 -2.70446 -2.86798 0
M  V30 6119 H 578.027 -3.13584 -4.00678 0
M  V30 6120 H 577.425 -0.407303 -5.64232 0
M  V30 6121 H 575.982 -0.85182 -6.4621 0
M  V30 6122 N 579.415 0.9433 -1.26252 0
M  V30 6123 C 580.692 1.66639 -1.02424 0
M  V30 6124 C 581.072 2.06335 0.446006 0
M  V30 6125 O 580.42 1.78551 1.42589 0
M  V30 6126 C 580.63 2.88019 -1.97094 0
M  V30 6127 C 581.978 3.59718 -2.25584 0
M  V30 6128 O 583.002 2.9812 -1.94943 0
M  V30 6129 O 581.861 4.7066 -2.77743 0
M  V30 6130 H 578.955 0.729643 -0.389294 0
M  V30 6131 H 581.501 0.995218 -1.37454 0
M  V30 6132 H 580.273 2.5556 -2.96319 0
M  V30 6133 H 579.896 3.62863 -1.62532 0
M  V30 6134 N 580.893 1.08022 1.14757 0
M  V30 6135 C 582.17 0.720386 1.81851 0
M  V30 6136 C 582.55 -0.796375 1.95502 0
M  V30 6137 O 581.898 -1.71339 1.51179 0
M  V30 6138 C 582.108 1.44273 3.17783 0
M  V30 6139 C 583.456 1.59925 3.93331 0
M  V30 6140 O 584.48 1.40407 3.2736 0
M  V30 6141 O 583.339 1.92096 5.11626 0
M  V30 6142 H 580.433 0.257142 0.786007 0
M  V30 6143 H 582.979 1.18155 1.21809 0
M  V30 6144 H 581.751 2.47618 3.02987 0
M  V30 6145 H 581.374 0.97279 3.85516 0
M  V30 6146 N 582.371 -1.3172 0.865308 0
M  V30 6147 C 583.617 -1.97168 0.474633 0
M  V30 6148 C 583.95 -1.68263 -0.969604 0
M  V30 6149 O 583.225 -0.976588 -1.68205 0
M  V30 6150 C 583.508 -3.52689 0.726808 0
M  V30 6151 C 583.361 -3.91185 2.22024 0
M  V30 6152 C 584.68 -4.39689 0.190201 0
M  V30 6153 H 581.799 -0.716185 0.17392 0
M  V30 6154 H 584.441 -1.55925 1.08569 0
M  V30 6155 H 582.591 -3.8795 0.206705 0
M  V30 6156 H 584.263 -3.66049 2.80724 0
M  V30 6157 H 582.506 -3.3996 2.69462 0
M  V30 6158 H 583.177 -4.99604 2.34735 0
M  V30 6159 H 585.653 -4.11225 0.635103 0
M  V30 6160 H 584.529 -5.47469 0.396132 0
M  V30 6161 H 584.79 -4.32683 -0.907625 0
M  V30 6162 N 583.85 -0.624285 -1.44708 0
M  V30 6163 C 585.127 -0.0572781 -1.95516 0
M  V30 6164 C 585.507 1.41516 -1.56641 0
M  V30 6165 O 584.855 2.12614 -0.837111 0
M  V30 6166 C 585.065 -0.272944 -3.47931 0
M  V30 6167 C 586.413 -0.162529 -4.24289 0
M  V30 6168 O 587.437 -0.203946 -3.55616 0
M  V30 6169 O 586.296 -0.0616847 -5.46465 0
M  V30 6170 H 583.389 0.0262219 -0.826584 0
M  V30 6171 H 585.936 -0.695512 -1.54793 0
M  V30 6172 H 584.707 -1.29492 -3.69253 0
M  V30 6173 H 584.331 0.399756 -3.95585 0
M  V30 6174 N 585.328 1.53329 -0.364422 0
M  V30 6175 C 586.258 2.28627 0.474543 0
M  V30 6176 C 587.239 1.31009 1.08492 0
M  V30 6177 O 588.424 1.59878 1.10239 0
M  V30 6178 C 585.554 3.07465 1.61501 0
M  V30 6179 C 584.508 4.1276 1.13194 0
M  V30 6180 C 583.834 4.79674 2.36255 0
M  V30 6181 C 585.134 5.21847 0.217507 0
M  V30 6182 H 586.828 2.99005 -0.153656 0
M  V30 6183 H 584.374 1.43803 -0.0753406 0
M  V30 6184 H 586.327 3.58889 2.20855 0
M  V30 6185 H 585.051 2.34775 2.27042 0
M  V30 6186 H 583.71 3.62281 0.56109 0
M  V30 6187 H 583.358 4.03557 3.00251 0
M  V30 6188 H 583.058 5.50827 2.04606 0
M  V30 6189 H 584.582 5.33892 2.96297 0
M  V30 6190 H 585.996 5.6878 0.718493 0
M  V30 6191 H 584.393 6.00099 -0.00806408 0
M  V30 6192 H 585.463 4.7921 -0.740653 0
M  V30 6193 N 586.806 0.0935595 1.57322 0
M  V30 6194 C 588.222 -0.263091 1.57417 0
M  V30 6195 C 588.422 -1.68526 1.1046 0
M  V30 6196 O 587.478 -2.40139 0.780357 0
M  V30 6197 C 588.791 -0.0529201 3.00653 0
M  V30 6198 C 590.339 -0.120788 3.12767 0
M  V30 6199 C 590.814 0.0613707 4.57959 0
M  V30 6200 N 592.305 0.00648534 4.632 0
M  V30 6201 C 593.04 0.122699 5.73269 0
M  V30 6202 N 592.536 0.29366 6.92177 0
M  V30 6203 N 594.329 0.0640787 5.62063 0
M  V30 6204 H 586.48 1.02277 1.86154 0
M  V30 6205 H 588.743 0.4007 0.859153 0
M  V30 6206 H 588.449 0.929279 3.39201 0
M  V30 6207 H 588.323 -0.795899 3.68708 0
M  V30 6208 H 590.71 -1.09349 2.74093 0
M  V30 6209 H 590.791 0.653656 2.47307 0
M  V30 6210 H 590.435 1.03093 4.97327 0
M  V30 6211 H 590.365 -0.732748 5.21477 0
M  V30 6212 H 592.856 -0.123173 3.77699 0
M  V30 6213 H 593.169 0.37389 7.71895 0
M  V30 6214 H 591.514 0.329307 6.94219 0
M  V30 6215 H 594.705 -0.0683396 4.6805 0
M  V30 6216 H 594.878 0.158097 6.47807 0
M  V30 6217 N 588.284 -1.56567 -0.180126 0
M  V30 6218 C 589.561 -1.7235 -0.924931 0
M  V30 6219 C 589.941 -0.652523 -2.00762 0
M  V30 6220 O 589.289 0.334115 -2.26044 0
M  V30 6221 C 589.499 -3.1523 -1.49771 0
M  V30 6222 C 590.847 -3.75921 -1.97405 0
M  V30 6223 O 591.871 -3.18452 -1.59583 0
M  V30 6224 O 590.73 -4.7681 -2.67048 0
M  V30 6225 H 587.824 -0.703502 -0.434758 0
M  V30 6226 H 590.37 -1.6886 -0.168647 0
M  V30 6227 H 589.142 -3.84656 -0.718027 0
M  V30 6228 H 588.765 -3.23009 -2.31842 0
M  V30 6229 N 589.762 0.448376 -1.51087 0
M  V30 6230 C 590.99 1.22143 -1.66999 0
M  V30 6231 C 591.405 1.85283 -0.362699 0
M  V30 6232 O 590.762 1.70236 0.65772 0
M  V30 6233 C 590.813 2.31357 -2.7777 0
M  V30 6234 O 590.534 1.70801 -4.03434 0
M  V30 6235 C 592.035 3.21836 -3.04855 0
M  V30 6236 H 589.255 0.368558 -0.560719 0
M  V30 6237 H 591.799 0.532618 -1.97442 0
M  V30 6238 H 589.954 2.95973 -2.49958 0
M  V30 6239 H 590.368 2.42895 -4.64868 0
M  V30 6240 H 591.842 3.94627 -3.85971 0
M  V30 6241 H 592.319 3.81949 -2.16821 0
M  V30 6242 H 592.925 2.62933 -3.34285 0
M  V30 6243 N 591.24 1.41047 0.703093 0
M  V30 6244 C 592.656 1.23351 1.01275 0
M  V30 6245 C 592.856 0.11754 2.01157 0
M  V30 6246 O 591.912 -0.520518 2.47077 0
M  V30 6247 C 593.225 2.58001 1.54454 0
M  V30 6248 C 594.773 2.65119 1.66376 0
M  V30 6249 C 595.248 4.00067 2.22958 0
M  V30 6250 N 596.739 4.01875 2.30328 0
M  V30 6251 C 597.474 5.03087 2.75119 0
M  V30 6252 N 596.97 6.14692 3.19571 0
M  V30 6253 N 598.763 4.90451 2.74616 0
M  V30 6254 H 590.914 2.1236 0.0412686 0
M  V30 6255 H 593.177 0.944543 0.08089 0
M  V30 6256 H 592.883 3.40378 0.88521 0
M  V30 6257 H 592.757 2.79962 2.52786 0
M  V30 6258 H 595.144 1.83106 2.31422 0
M  V30 6259 H 595.225 2.46975 0.666089 0
M  V30 6260 H 594.869 4.82526 1.58529 0
M  V30 6261 H 594.799 4.15547 3.23462 0
M  V30 6262 H 597.29 3.21291 1.98949 0
M  V30 6263 H 597.603 6.87799 3.52352 0
M  V30 6264 H 595.948 6.18239 3.17498 0
M  V30 6265 H 599.139 4.0235 2.39233 0
M  V30 6266 H 599.312 5.6947 3.09206 0
M  V30 6267 N 592.718 -0.936591 1.26751 0
M  V30 6268 C 594.134 -1.21095 1.03963 0
M  V30 6269 C 594.334 -2.00156 -0.232372 0
M  V30 6270 O 593.39 -2.3434 -0.940274 0
M  V30 6271 C 594.703 -1.96775 2.27377 0
M  V30 6272 C 596.251 -2.09749 2.32324 0
M  V30 6273 C 596.726 -2.88832 3.55443 0
M  V30 6274 N 598.217 -2.96404 3.55948 0
M  V30 6275 C 598.952 -3.58036 4.47881 0
M  V30 6276 N 598.448 -4.21132 5.50109 0
M  V30 6277 N 600.241 -3.55353 4.35523 0
M  V30 6278 H 592.392 -0.408173 2.08441 0
M  V30 6279 H 594.655 -0.243139 0.91629 0
M  V30 6280 H 594.361 -1.46094 3.19921 0
M  V30 6281 H 594.235 -2.97424 2.31989 0
M  V30 6282 H 596.622 -2.5962 1.40291 0
M  V30 6283 H 596.703 -1.08347 2.31721 0
M  V30 6284 H 596.347 -2.39647 4.47808 0
M  V30 6285 H 596.277 -3.90499 3.53296 0
M  V30 6286 H 598.768 -2.51552 2.82011 0
M  V30 6287 H 599.081 -4.66071 6.16439 0
M  V30 6288 H 597.426 -4.19705 5.53961 0
M  V30 6289 H 600.617 -3.05256 3.54875 0
M  V30 6290 H 600.79 -4.03097 5.07363 0
M  V30 6291 N 594.196 -1.08629 -1.14182 0
M  V30 6292 C 595.146 -0.687882 -2.17376 0
M  V30 6293 C 596.13 0.293632 -1.58198 0
M  V30 6294 O 597.322 0.105292 -1.76687 0
M  V30 6295 C 594.451 -0.101184 -3.43151 0
M  V30 6296 C 593.537 -1.10862 -4.09354 0
M  V30 6297 N 593.928 -2.29285 -4.50846 0
M  V30 6298 C 592.226 -0.944897 -4.35876 0
M  V30 6299 C 592.927 -2.93305 -5.02342 0
M  V30 6300 N 591.903 -2.20903 -4.96692 0
M  V30 6301 H 595.705 -1.58963 -2.472 0
M  V30 6302 H 593.219 -0.961329 -1.3089 0
M  V30 6303 H 595.216 0.202209 -4.16409 0
M  V30 6304 H 593.876 0.795522 -3.14804 0
M  V30 6305 H 594.887 -2.66927 -4.43813 0
M  V30 6306 H 591.564 -0.102186 -4.17375 0
M  V30 6307 H 592.954 -3.93932 -5.44304 0
M  V30 6308 N 595.674 1.31259 -0.872281 0
M  V30 6309 C 596.914 1.98418 -0.490894 0
M  V30 6310 C 597.278 1.67429 0.939755 0
M  V30 6311 O 598.479 2.27818 1.42661 0
M  V30 6312 C 596.75 3.49583 -0.743408 0
M  V30 6313 S 598.309 4.36359 -0.462226 0
M  V30 6314 H 595.127 0.687005 -0.183151 0
M  V30 6315 H 597.729 1.59619 -1.12881 0
M  V30 6316 H 596.433 3.69627 -1.78338 0
M  V30 6317 H 595.964 3.93291 -0.0925758 0
M  V30 6318 H 597.979 4.91173 0.704525 0
M  V30 6319 N 597.152 0.631951 1.44375 0
M  V30 6320 C 598.429 0.067646 1.95483 0
M  V30 6321 C 598.809 -1.40683 1.57389 0
M  V30 6322 O 598.157 -2.12167 0.848375 0
M  V30 6323 C 598.367 0.291392 3.47781 0
M  V30 6324 C 599.715 0.185028 4.24197 0
M  V30 6325 O 600.739 0.222803 3.55503 0
M  V30 6326 O 599.598 0.0906642 5.46425 0
M  V30 6327 H 596.692 -0.0218379 0.826712 0
M  V30 6328 H 599.238 0.703711 1.54421 0
M  V30 6329 H 598.01 1.31449 3.68561 0
M  V30 6330 H 597.633 -0.378772 3.95792 0
M  V30 6331 N 598.631 -1.53133 0.372548 0
M  V30 6332 C 599.578 -2.25951 -0.470631 0
M  V30 6333 C 600.548 -1.26895 -1.07176 0
M  V30 6334 O 601.733 -1.55691 -1.10294 0
M  V30 6335 C 598.873 -3.05726 -1.6008 0
M  V30 6336 C 597.986 -4.19684 -1.02416 0
M  V30 6337 C 597.121 -4.86888 -2.124 0
M  V30 6338 C 596.16 -5.92866 -1.52238 0
M  V30 6339 N 595.297 -6.53732 -2.56084 0
M  V30 6340 H 600.137 -2.97587 0.156816 0
M  V30 6341 H 597.674 -1.4683 0.0891571 0
M  V30 6342 H 599.632 -3.50258 -2.26661 0
M  V30 6343 H 598.262 -2.36331 -2.1988 0
M  V30 6344 H 597.314 -3.79588 -0.248426 0
M  V30 6345 H 598.626 -4.95821 -0.544366 0
M  V30 6346 H 597.78 -5.34638 -2.86787 0
M  V30 6347 H 596.519 -4.10239 -2.63734 0
M  V30 6348 H 595.524 -5.4447 -0.763685 0
M  V30 6349 H 596.749 -6.71439 -1.0172 0
M  V30 6350 H 594.695 -5.79932 -3.06618 0
M  V30 6351 H 594.612 -7.25429 -2.12811 0
M  V30 6352 H 595.88 -7.0613 -3.30152 0
M  V30 6353 N 600.109 -0.101901 -1.5727 0
M  V30 6354 C 601.357 0.559091 -1.94213 0
M  V30 6355 C 601.678 1.68297 -0.984948 0
M  V30 6356 O 600.948 1.95863 -0.0381975 0
M  V30 6357 H 599.528 0.20952 -0.717015 0
M  V30 6358 H 602.19 -0.166831 -1.94185 0
M  V30 6359 H 601.286 0.96485 -2.96811 0
M  V30 6360 N 601.587 1.56661 0.17182 0
M  V30 6361 C 602.535 1.97289 1.23207 0
M  V30 6362 C 603.529 0.861566 1.45854 0
M  V30 6363 O 604.735 1.04668 1.4644 0
M  V30 6364 H 601.11 0.627681 0.41415 0
M  V30 6365 H 603.081 2.85662 0.862542 0
M  V30 6366 C 601.83 2.34849 2.564 0
M  V30 6367 H 601.153 3.19903 2.39797 0
M  V30 6368 H 602.593 2.67121 3.29276 0
M  V30 6369 C 601.052 1.19172 3.15119 0
M  V30 6370 O 601.582 0.479113 3.98833 0
M  V30 6371 N 599.788 0.962415 2.74201 0
M  V30 6372 H 599.335 1.54365 2.06226 0
M  V30 6373 H 599.293 0.190272 3.13824 0
M  V30 6374 N 603.065 -0.440357 1.51323 0
M  V30 6375 C 603.995 -1.54174 1.75364 0
M  V30 6376 C 604.976 -1.59039 0.603375 0
M  V30 6377 O 606.161 -1.74815 0.845774 0
M  V30 6378 C 603.291 -2.92277 1.87593 0
M  V30 6379 C 602.245 -3.02274 3.03009 0
M  V30 6380 C 601.571 -4.42327 3.00418 0
M  V30 6381 C 602.871 -2.76634 4.43024 0
M  V30 6382 H 604.565 -1.34307 2.67585 0
M  V30 6383 H 602.111 -0.644678 1.28763 0
M  V30 6384 H 604.064 -3.69284 2.02995 0
M  V30 6385 H 602.788 -3.13369 0.920179 0
M  V30 6386 H 601.447 -2.27706 2.87307 0
M  V30 6387 H 601.095 -4.60382 2.02626 0
M  V30 6388 H 600.795 -4.49946 3.77918 0
M  V30 6389 H 602.319 -5.21312 3.17909 0
M  V30 6390 H 603.733 -3.43376 4.59093 0
M  V30 6391 H 602.13 -2.95666 5.22208 0
M  V30 6392 H 603.2 -1.72262 4.5327 0
M  V30 6393 N 604.543 -1.41418 -0.695603 0
M  V30 6394 C 605.959 -1.23887 -1.00619 0
M  V30 6395 C 606.159 -0.128206 -2.01092 0
M  V30 6396 O 605.215 0.507408 -2.47349 0
M  V30 6397 C 606.528 -2.58816 -1.53083 0
M  V30 6398 C 608.076 -2.65998 -1.64967 0
M  V30 6399 C 608.551 -4.01244 -2.20833 0
M  V30 6400 N 610.042 -4.0309 -2.28194 0
M  V30 6401 C 610.777 -5.04539 -2.72448 0
M  V30 6402 N 610.273 -6.16378 -3.16306 0
M  V30 6403 N 612.066 -4.91901 -2.72011 0
M  V30 6404 H 604.217 -2.12379 -0.0300061 0
M  V30 6405 H 606.48 -0.944958 -0.0758797 0
M  V30 6406 H 606.186 -3.40842 -0.867147 0
M  V30 6407 H 606.06 -2.81299 -2.51298 0
M  V30 6408 H 608.447 -1.84331 -2.30448 0
M  V30 6409 H 608.528 -2.47325 -0.652982 0
M  V30 6410 H 608.172 -4.83359 -1.55968 0
M  V30 6411 H 608.102 -4.17257 -3.21254 0
M  V30 6412 H 610.593 -3.22341 -1.97242 0
M  V30 6413 H 610.906 -6.89658 -3.487 0
M  V30 6414 H 609.251 -6.19914 -3.14215 0
M  V30 6415 H 612.442 -4.03613 -2.37095 0
M  V30 6416 H 612.615 -5.71102 -3.06181 0
M  V30 6417 N 606.021 0.929856 -1.27246 0
M  V30 6418 C 607.267 1.6798 -1.13625 0
M  V30 6419 C 607.6 1.91586 0.317589 0
M  V30 6420 O 606.875 1.50467 1.23247 0
M  V30 6421 C 607.158 3.04766 -1.91806 0
M  V30 6422 C 607.011 2.88415 -3.45162 0
M  V30 6423 C 608.33 4.05063 -1.72082 0
M  V30 6424 H 605.449 0.609632 -0.414147 0
M  V30 6425 H 608.091 1.0792 -1.56376 0
M  V30 6426 H 606.241 3.56034 -1.55474 0
M  V30 6427 H 607.913 2.44282 -3.91311 0
M  V30 6428 H 606.156 2.23802 -3.71611 0
M  V30 6429 H 606.827 3.85482 -3.95105 0
M  V30 6430 H 609.303 3.62798 -2.03757 0
M  V30 6431 H 608.179 4.98765 -2.29182 0
M  V30 6432 H 608.44 4.37021 -0.668206 0
M  V30 6433 N 607.499 1.09233 1.13605 0
M  V30 6434 C 608.446 0.729921 2.18954 0
M  V30 6435 C 609.416 -0.287916 1.63586 0
M  V30 6436 O 610.601 -0.170003 1.90041 0
M  V30 6437 C 607.741 0.154489 3.44754 0
M  V30 6438 C 606.854 1.22613 4.14234 0
M  V30 6439 C 605.989 0.613657 5.27644 0
M  V30 6440 C 605.028 1.66674 5.8897 0
M  V30 6441 N 604.165 1.07545 6.93814 0
M  V30 6442 H 609.005 1.63257 2.49302 0
M  V30 6443 H 606.542 0.815693 1.22413 0
M  V30 6444 H 608.5 -0.196923 4.16735 0
M  V30 6445 H 607.13 -0.711433 3.14863 0
M  V30 6446 H 606.182 1.69485 3.40557 0
M  V30 6447 H 607.494 2.0238 4.55899 0
M  V30 6448 H 606.648 0.210976 6.06333 0
M  V30 6449 H 605.387 -0.215584 4.87223 0
M  V30 6450 H 604.392 2.07899 5.08978 0
M  V30 6451 H 605.617 2.49861 6.31464 0
M  V30 6452 H 603.563 0.267451 6.55455 0
M  V30 6453 H 603.48 1.81011 7.3401 0
M  V30 6454 H 604.748 0.698906 7.7636 0
M  V30 6455 N 608.977 -1.30795 0.87923 0
M  V30 6456 C 610.388 -1.78535 0.546093 0
M  V30 6457 C 610.739 -1.72354 -0.937467 0
M  V30 6458 O 609.864 -1.2969 -1.73233 0
M  V30 6459 C 610.459 -3.24181 0.9845 0
M  V30 6460 C 609.018 -3.69779 0.702871 0
M  V30 6461 C 608.165 -2.51377 1.17068 0
M  V30 6462 H 611.116 -1.17746 1.06403 0
M  V30 6463 H 611.137 -3.79227 0.311045 0
M  V30 6464 H 610.649 -3.28647 2.06429 0
M  V30 6465 H 608.75 -3.70806 -0.365166 0
M  V30 6466 H 608.863 -4.61507 1.28639 0
M  V30 6467 H 607.227 -2.47768 0.590172 0
M  V30 6468 H 608.01 -2.58584 2.25808 0
M  V30 6469 N 610.455 -0.639598 -1.44038 0
M  V30 6470 C 611.387 0.0987684 -2.28987 0
M  V30 6471 C 612.4 0.80058 -1.41755 0
M  V30 6472 O 613.589 0.660611 -1.65826 0
M  V30 6473 C 610.689 1.16242 -3.18341 0
M  V30 6474 C 609.862 0.541447 -4.34036 0
M  V30 6475 C 608.921 1.50017 -5.04362 0
M  V30 6476 O 607.947 1.01403 -5.60095 0
M  V30 6477 N 609.149 2.83441 -5.06598 0
M  V30 6478 H 611.914 -0.630305 -2.92997 0
M  V30 6479 H 609.475 -0.481376 -1.54578 0
M  V30 6480 H 611.467 1.80429 -3.62253 0
M  V30 6481 H 610.037 1.79362 -2.56024 0
M  V30 6482 H 609.257 -0.27923 -3.9321 0
M  V30 6483 H 610.545 0.107379 -5.08687 0
M  V30 6484 H 609.943 3.2551 -4.62666 0
M  V30 6485 H 608.5 3.42966 -5.54272 0
M  V30 6486 N 611.933 1.52934 -0.380664 0
M  V30 6487 C 612.865 2.23822 0.493581 0
M  V30 6488 C 613.878 1.25761 1.03383 0
M  V30 6489 O 615.067 1.5189 0.937633 0
M  V30 6490 C 612.167 2.9342 1.69582 0
M  V30 6491 C 611.34 4.18115 1.28445 0
M  V30 6492 C 610.399 4.70788 2.35042 0
M  V30 6493 O 609.425 5.34093 1.96807 0
M  V30 6494 N 610.627 4.49899 3.66839 0
M  V30 6495 H 613.392 2.99484 -0.11371 0
M  V30 6496 H 610.953 1.60577 -0.206587 0
M  V30 6497 H 612.945 3.2556 2.40401 0
M  V30 6498 H 611.515 2.21119 2.20965 0
M  V30 6499 H 610.735 3.92109 0.405503 0
M  V30 6500 H 612.023 4.99152 0.986132 0
M  V30 6501 H 611.421 3.99349 4.0067 0
M  V30 6502 H 609.978 4.86551 4.33718 0
M  V30 6503 N 613.412 0.11024 1.57214 0
M  V30 6504 C 614.66 -0.548783 1.94506 0
M  V30 6505 C 614.981 -1.67772 0.99386 0
M  V30 6506 O 614.251 -1.9584 0.0485841 0
M  V30 6507 H 612.831 -0.205715 0.718116 0
M  V30 6508 H 615.493 0.177127 1.94093 0
M  V30 6509 H 614.589 -0.949096 2.97319 0
M  V30 6510 N 614.89 -1.56749 -0.16351 0
M  V30 6511 C 616.118 -1.86577 -0.894233 0
M  V30 6512 C 616.533 -0.696543 -1.75481 0
M  V30 6513 O 615.89 0.334161 -1.79415 0
M  V30 6514 C 615.941 -3.15508 -1.76456 0
M  V30 6515 O 615.662 -4.27926 -0.938685 0
M  V30 6516 C 617.163 -3.58737 -2.60428 0
M  V30 6517 H 614.383 -0.618829 -0.259405 0
M  V30 6518 H 616.927 -2.03863 -0.161259 0
M  V30 6519 H 615.082 -3.00025 -2.45079 0
M  V30 6520 H 615.496 -5.01546 -1.53465 0
M  V30 6521 H 616.97 -4.51832 -3.17099 0
M  V30 6522 H 617.447 -2.83229 -3.35675 0
M  V30 6523 H 618.053 -3.76858 -1.97125 0
M  V30 6524 N 616.368 0.432326 -1.51554 0
M  V30 6525 C 617.331 1.50765 -1.72634 0
M  V30 6526 C 618.331 1.49334 -0.596314 0
M  V30 6527 O 619.521 1.51268 -0.863925 0
M  V30 6528 C 616.653 2.90284 -1.7874 0
M  V30 6529 H 617.846 1.33377 -2.68609 0
M  V30 6530 H 615.399 0.661329 -1.4162 0
M  V30 6531 H 616.134 3.13071 -0.845977 0
M  V30 6532 H 615.919 2.92727 -2.6087 0
M  V30 6533 H 617.409 3.68282 -1.96871 0
M  V30 6534 N 617.846 1.41785 0.688094 0
M  V30 6535 C 619.092 1.41753 1.4503 0
M  V30 6536 C 619.425 0.0290745 1.94178 0
M  V30 6537 O 618.7 -0.944456 1.7003 0
M  V30 6538 C 618.983 2.43069 2.65686 0
M  V30 6539 C 618.836 3.91053 2.22256 0
M  V30 6540 C 620.155 2.41543 3.67893 0
M  V30 6541 H 617.274 0.516202 0.526027 0
M  V30 6542 H 619.916 1.73111 0.783105 0
M  V30 6543 H 618.066 2.1646 3.2261 0
M  V30 6544 H 619.738 4.28594 1.70602 0
M  V30 6545 H 617.981 4.05559 1.53963 0
M  V30 6546 H 618.652 4.57501 3.08863 0
M  V30 6547 H 621.128 2.65175 3.20658 0
M  V30 6548 H 620.004 3.14434 4.49914 0
M  V30 6549 H 620.265 1.43666 4.18106 0
M  V30 6550 N 619.324 -0.923095 1.27737 0
M  V30 6551 C 620.571 -1.67127 1.14345 0
M  V30 6552 C 620.899 -1.92017 -0.30982 0
M  V30 6553 O 620.154 -1.51185 -1.24264 0
M  V30 6554 C 620.453 -3.04125 1.8773 0
M  V30 6555 C 620.119 -2.98929 3.37568 0
M  V30 6556 C 618.781 -2.9722 3.78436 0
M  V30 6557 C 621.133 -2.89875 4.33154 0
M  V30 6558 C 618.461 -2.84244 5.13247 0
M  V30 6559 C 620.813 -2.7844 5.68026 0
M  V30 6560 C 619.477 -2.75083 6.08182 0
M  V30 6561 H 618.747 -0.611562 0.418417 0
M  V30 6562 H 621.394 -1.07618 1.584 0
M  V30 6563 H 619.699 -3.67366 1.36196 0
M  V30 6564 H 621.396 -3.609 1.74792 0
M  V30 6565 H 617.986 -3.0105 3.05069 0
M  V30 6566 H 622.17 -2.9029 4.02548 0
M  V30 6567 H 617.426 -2.80034 5.43499 0
M  V30 6568 H 621.6 -2.70401 6.4176 0
M  V30 6569 H 619.227 -2.64786 7.12596 0
M  V30 6570 N 620.802 -1.09834 -1.13024 0
M  V30 6571 C 622.048 -0.848072 -1.84876 0
M  V30 6572 C 622.403 0.619663 -1.82148 0
M  V30 6573 O 621.696 1.45067 -1.25164 0
M  V30 6574 C 621.89 -1.32263 -3.32026 0
M  V30 6575 C 621.719 -2.83497 -3.49084 0
M  V30 6576 C 620.489 -3.51425 -3.63082 0
M  V30 6577 C 622.687 -3.81623 -3.44773 0
M  V30 6578 N 620.669 -4.91042 -3.68443 0
M  V30 6579 C 622.04 -5.07217 -3.56555 0
M  V30 6580 C 624.095 -3.74419 -3.282 0
M  V30 6581 C 622.798 -6.26457 -3.53474 0
M  V30 6582 C 624.824 -4.93151 -3.26429 0
M  V30 6583 C 624.186 -6.1759 -3.38765 0
M  V30 6584 H 620.285 -0.363249 -0.692513 0
M  V30 6585 H 622.869 -1.39952 -1.35357 0
M  V30 6586 H 621.04 -0.79858 -3.80102 0
M  V30 6587 H 622.772 -1.01725 -3.91707 0
M  V30 6588 H 619.527 -3.0186 -3.64935 0
M  V30 6589 H 619.951 -5.63782 -3.74805 0
M  V30 6590 H 624.593 -2.79132 -3.17561 0
M  V30 6591 H 622.311 -7.22039 -3.62884 0
M  V30 6592 H 625.897 -4.8928 -3.14796 0
M  V30 6593 H 624.777 -7.07925 -3.37361 0
M  V30 6594 N 622.28 1.30327 -0.886154 0
M  V30 6595 C 623.51 1.99964 -0.519421 0
M  V30 6596 C 623.918 1.66593 0.89686 0
M  V30 6597 O 623.261 0.899886 1.60149 0
M  V30 6598 C 623.323 3.54187 -0.615795 0
M  V30 6599 C 622.987 4.11078 -1.9966 0
M  V30 6600 C 623.984 4.26985 -2.96614 0
M  V30 6601 C 621.669 4.46429 -2.30231 0
M  V30 6602 C 623.663 4.77456 -4.22273 0
M  V30 6603 C 621.35 4.966 -3.56135 0
M  V30 6604 C 622.348 5.12066 -4.5197 0
M  V30 6605 O 622.036 5.61154 -5.7564 0
M  V30 6606 H 621.768 0.645979 -0.199217 0
M  V30 6607 H 624.322 1.67154 -1.19368 0
M  V30 6608 H 622.552 3.86528 0.115448 0
M  V30 6609 H 624.241 4.05065 -0.26017 0
M  V30 6610 H 625.007 3.99975 -2.74308 0
M  V30 6611 H 620.886 4.33658 -1.56404 0
M  V30 6612 H 624.43 4.89444 -4.97082 0
M  V30 6613 H 620.327 5.23045 -3.78277 0
M  V30 6614 H 621.095 5.79494 -5.78039 0
M  V30 6615 N 623.758 0.647228 1.43697 0
M  V30 6616 C 624.706 -0.0600105 2.32523 0
M  V30 6617 C 625.7 -0.819277 1.48271 0
M  V30 6618 O 626.906 -0.730356 1.64517 0
M  V30 6619 H 623.281 -0.0381872 0.75103 0
M  V30 6620 H 625.252 0.706978 2.89904 0
M  V30 6621 C 624.001 -1.0169 3.32497 0
M  V30 6622 H 623.324 -0.442083 3.97348 0
M  V30 6623 H 624.764 -1.48095 3.97296 0
M  V30 6624 C 623.223 -2.11002 2.6264 0
M  V30 6625 O 623.753 -3.19302 2.4374 0
M  V30 6626 N 621.959 -1.87388 2.22113 0
M  V30 6627 H 621.506 -0.993174 2.37684 0
M  V30 6628 H 621.464 -2.60723 1.75701 0
M  V30 6629 N 625.236 -1.5273 0.388769 0
M  V30 6630 C 626.466 -2.05693 -0.193397 0
M  V30 6631 C 626.874 -1.26038 -1.41107 0
M  V30 6632 O 626.217 -0.30001 -1.81234 0
M  V30 6633 C 626.279 -3.53962 -0.628561 0
M  V30 6634 C 625.943 -4.54519 0.475576 0
M  V30 6635 C 626.94 -5.02526 1.33281 0
M  V30 6636 C 624.625 -4.98174 0.642453 0
M  V30 6637 C 626.619 -5.92812 2.34205 0
M  V30 6638 C 624.306 -5.88262 1.65503 0
M  V30 6639 C 625.304 -6.35473 2.50325 0
M  V30 6640 O 624.992 -7.23781 3.49852 0
M  V30 6641 H 624.724 -0.675197 -0.0329395 0
M  V30 6642 H 627.278 -1.97835 0.552326 0
M  V30 6643 H 625.508 -3.59437 -1.42625 0
M  V30 6644 H 627.197 -3.89669 -1.13633 0
M  V30 6645 H 627.963 -4.6953 1.21519 0
M  V30 6646 H 623.842 -4.60999 -0.00805093 0
M  V30 6647 H 627.386 -6.29585 3.00447 0
M  V30 6648 H 623.283 -6.20672 1.77304 0
M  V30 6649 H 624.051 -7.4184 3.45855 0
M  V30 6650 N 626.714 -0.118576 -1.57153 0
M  V30 6651 C 627.644 0.828436 -2.1831 0
M  V30 6652 C 628.625 1.27758 -1.12303 0
M  V30 6653 O 629.81 1.34026 -1.40537 0
M  V30 6654 C 626.94 2.07876 -2.78217 0
M  V30 6655 C 625.894 1.76742 -3.89803 0
M  V30 6656 C 625.22 3.08801 -4.36516 0
M  V30 6657 C 626.52 1.03606 -5.11921 0
M  V30 6658 H 628.214 0.318824 -2.97698 0
M  V30 6659 H 625.76 0.151911 -1.43196 0
M  V30 6660 H 627.713 2.74584 -3.19659 0
M  V30 6661 H 626.437 2.61161 -1.96118 0
M  V30 6662 H 625.096 1.12424 -3.48936 0
M  V30 6663 H 624.744 3.6002 -3.51276 0
M  V30 6664 H 624.444 2.88743 -5.11763 0
M  V30 6665 H 625.968 3.76627 -4.80608 0
M  V30 6666 H 627.382 1.60467 -5.50385 0
M  V30 6667 H 625.779 0.936454 -5.92748 0
M  V30 6668 H 626.849 0.0227421 -4.84895 0
M  V30 6669 N 628.193 1.56834 0.155195 0
M  V30 6670 C 629.604 1.72421 0.716082 0
M  V30 6671 C 629.955 0.731685 1.82046 0
M  V30 6672 O 629.08 -0.103481 2.16152 0
M  V30 6673 C 629.675 3.12629 1.30571 0
M  V30 6674 C 628.234 3.29846 1.81325 0
M  V30 6675 C 627.381 2.68359 0.698494 0
M  V30 6676 H 630.332 1.58544 -0.0703861 0
M  V30 6677 H 630.353 3.12174 2.1755 0
M  V30 6678 H 629.865 3.84844 0.501701 0
M  V30 6679 H 627.966 2.62614 2.64319 0
M  V30 6680 H 628.079 4.37727 1.9476 0
M  V30 6681 H 626.443 2.28604 1.12305 0
M  V30 6682 H 627.226 3.43171 -0.0939366 0
M  V30 6683 N 629.671 -0.424282 1.51781 0
M  V30 6684 C 630.948 -1.18464 1.55646 0
M  V30 6685 C 631.328 -2.08529 0.328438 0
M  V30 6686 O 630.676 -2.17969 -0.685693 0
M  V30 6687 C 630.886 -1.97514 2.87731 0
M  V30 6688 C 632.234 -2.54106 3.40169 0
M  V30 6689 O 633.258 -2.07711 2.89369 0
M  V30 6690 O 632.117 -3.38759 4.28841 0
M  V30 6691 H 629.211 -0.540055 0.626314 0
M  V30 6692 H 631.757 -0.432291 1.64102 0
M  V30 6693 H 630.529 -1.31444 3.68562 0
M  V30 6694 H 630.152 -2.79787 2.82498 0
M  V30 6695 N 631.149 -1.42148 -0.680565 0
M  V30 6696 C 632.397 -1.42029 -1.43779 0
M  V30 6697 C 632.718 -0.0356347 -1.94967 0
M  V30 6698 O 631.988 0.924936 -1.7269 0
M  V30 6699 H 630.568 -0.522835 -0.533529 0
M  V30 6700 H 633.23 -1.7752 -0.804538 0
M  V30 6701 H 632.326 -2.11658 -2.29363 0
M  V30 6702 N 632.627 0.916307 -1.28225 0
M  V30 6703 C 633.559 2.02303 -1.07732 0
M  V30 6704 C 634.572 1.62773 -0.0298421 0
M  V30 6705 O 635.761 1.76406 -0.272626 0
M  V30 6706 C 632.861 3.33282 -0.614504 0
M  V30 6707 C 632.034 4.01439 -1.73682 0
M  V30 6708 C 631.093 5.10698 -1.26781 0
M  V30 6709 O 630.119 5.34038 -1.96958 0
M  V30 6710 N 631.321 5.80355 -0.129624 0
M  V30 6711 H 634.086 2.20442 -2.03041 0
M  V30 6712 H 631.647 1.08744 -1.19943 0
M  V30 6713 H 633.639 4.03699 -0.284397 0
M  V30 6714 H 632.209 3.11633 0.245664 0
M  V30 6715 H 631.429 3.24604 -2.23665 0
M  V30 6716 H 632.717 4.43721 -2.48976 0
M  V30 6717 H 632.115 5.6386 0.455847 0
M  V30 6718 H 630.672 6.51647 0.141224 0
M  V30 6719 N 634.105 1.10431 1.1244 0
M  V30 6720 C 635.353 0.845045 1.83585 0
M  V30 6721 C 635.674 -0.631168 1.84503 0
M  V30 6722 O 634.944 -1.45825 1.30813 0
M  V30 6723 H 633.524 0.309628 0.679809 0
M  V30 6724 H 636.186 1.39458 1.36153 0
M  V30 6725 H 635.282 1.20786 2.8778 0
M  V30 6726 N 635.583 -1.29855 0.893053 0
M  V30 6727 C 636.829 -1.96488 0.52574 0
M  V30 6728 C 637.184 -1.69164 -0.916594 0
M  V30 6729 O 636.477 -0.990405 -1.64017 0
M  V30 6730 C 636.671 -3.49515 0.746588 0
M  V30 6731 C 636.5 -3.91715 2.20884 0
M  V30 6732 C 635.27 -4.16915 2.85499 0
M  V30 6733 C 637.468 -4.03934 3.18342 0
M  V30 6734 N 635.45 -4.45634 4.22236 0
M  V30 6735 C 636.821 -4.36629 4.40176 0
M  V30 6736 C 638.876 -3.86387 3.14021 0
M  V30 6737 C 637.579 -4.53605 5.58243 0
M  V30 6738 C 639.605 -4.04569 4.31367 0
M  V30 6739 C 638.967 -4.37617 5.5197 0
M  V30 6740 H 635.066 -0.743657 0.241863 0
M  V30 6741 H 637.65 -1.56927 1.15248 0
M  V30 6742 H 635.821 -3.88113 0.149281 0
M  V30 6743 H 637.553 -4.03224 0.345372 0
M  V30 6744 H 634.308 -4.10423 2.36326 0
M  V30 6745 H 634.732 -4.64114 4.92876 0
M  V30 6746 H 639.374 -3.59906 2.21873 0
M  V30 6747 H 637.092 -4.78925 6.50889 0
M  V30 6748 H 640.678 -3.92452 4.29503 0
M  V30 6749 H 639.558 -4.51395 6.41258 0
M  V30 6750 N 637.061 -0.65484 -1.43351 0
M  V30 6751 C 638.307 -0.169142 -2.02093 0
M  V30 6752 C 638.64 1.21431 -1.51553 0
M  V30 6753 O 637.915 1.81105 -0.709317 0
M  V30 6754 C 638.198 -0.181775 -3.59641 0
M  V30 6755 C 638.051 -1.59926 -4.20409 0
M  V30 6756 C 639.37 0.480945 -4.37464 0
M  V30 6757 H 636.489 -0.0629371 -0.734308 0
M  V30 6758 H 639.131 -0.835833 -1.70628 0
M  V30 6759 H 637.281 0.385918 -3.86578 0
M  V30 6760 H 638.953 -2.21766 -4.04497 0
M  V30 6761 H 637.196 -2.14605 -3.76998 0
M  V30 6762 H 637.867 -1.55994 -5.295 0
M  V30 6763 H 640.343 -0.00208273 -4.161 0
M  V30 6764 H 639.219 0.441384 -5.47122 0
M  V30 6765 H 639.48 1.55533 -4.13838 0
M  V30 6766 N 638.539 1.52521 -0.396863 0
M  V30 6767 C 639.787 2.01274 0.182536 0
M  V30 6768 C 640.108 1.28485 1.46685 0
M  V30 6769 O 639.378 0.407134 1.91623 0
M  V30 6770 H 637.958 0.743671 0.0704442 0
M  V30 6771 H 640.62 1.87547 -0.530289 0
M  V30 6772 H 639.716 3.09687 0.387385 0
M  V30 6773 N 640.017 0.126909 1.57088 0
M  V30 6774 C 641.294 -0.573152 1.87014 0
M  V30 6775 C 641.674 -1.84297 1.02945 0
M  V30 6776 O 641.022 -2.28232 0.110573 0
M  V30 6777 C 641.232 -0.857984 3.38289 0
M  V30 6778 C 642.58 -1.20759 4.07066 0
M  V30 6779 O 643.604 -0.947992 3.43353 0
M  V30 6780 O 642.463 -1.69516 5.19545 0
M  V30 6781 H 639.557 -0.290082 0.774456 0
M  V30 6782 H 642.103 0.162008 1.68925 0
M  V30 6783 H 640.875 0.0415286 3.91278 0
M  V30 6784 H 640.498 -1.64803 3.61837 0
M  V30 6785 N 641.495 -1.56914 -0.146875 0
M  V30 6786 C 642.741 -1.83628 -0.860741 0
M  V30 6787 C 643.074 -0.708528 -1.80813 0
M  V30 6788 O 642.349 0.287838 -1.92358 0
M  V30 6789 C 642.632 -3.20836 -1.63511 0
M  V30 6790 C 642.485 -4.44174 -0.709199 0
M  V30 6791 C 643.804 -3.55268 -2.59756 0
M  V30 6792 H 640.923 -0.667949 -0.311468 0
M  V30 6793 H 643.565 -1.89582 -0.125936 0
M  V30 6794 H 641.715 -3.15891 -2.26153 0
M  V30 6795 H 643.387 -4.61205 -0.0937781 0
M  V30 6796 H 641.63 -4.33796 -0.0187856 0
M  V30 6797 H 642.301 -5.36785 -1.28707 0
M  V30 6798 H 644.777 -3.60824 -2.07232 0
M  V30 6799 H 643.653 -4.52303 -3.10987 0
M  V30 6800 H 643.914 -2.81231 -3.41118 0
M  V30 6801 N 642.974 0.416227 -1.52004 0
M  V30 6802 C 644.251 1.17637 -1.56272 0
M  V30 6803 C 644.631 2.08352 -0.339493 0
M  V30 6804 O 643.979 2.1833 0.674124 0
M  V30 6805 C 644.189 1.95986 -2.88774 0
M  V30 6806 C 645.537 2.52299 -3.41512 0
M  V30 6807 O 646.561 2.06174 -2.90467 0
M  V30 6808 O 645.42 3.3648 -4.30631 0
M  V30 6809 H 642.514 0.536726 -0.629169 0
M  V30 6810 H 645.06 0.423583 -1.64329 0
M  V30 6811 H 643.832 1.29487 -3.69254 0
M  V30 6812 H 643.455 2.78285 -2.83978 0
M  V30 6813 N 644.452 1.42507 0.673017 0
M  V30 6814 C 645.729 1.33554 1.42908 0
M  V30 6815 C 646.109 -0.0262211 2.11084 0
M  V30 6816 O 645.457 -1.04181 2.03368 0
M  V30 6817 C 645.667 2.50498 2.43006 0
M  V30 6818 C 647.015 2.92694 3.07596 0
M  V30 6819 O 648.039 2.50401 2.53333 0
M  V30 6820 O 646.898 3.65899 4.05931 0
M  V30 6821 H 643.992 0.526785 0.637516 0
M  V30 6822 H 646.538 1.54518 0.701591 0
M  V30 6823 H 645.31 3.41272 1.9144 0
M  V30 6824 H 644.933 2.3153 3.23233 0
M  V30 6825 N 645.93 -0.909495 1.28709 0
M  V30 6826 C 647.16 -1.69027 1.188 0
M  V30 6827 C 647.568 -1.87469 -0.255329 0
M  V30 6828 O 646.911 -1.40458 -1.18394 0
M  V30 6829 C 646.973 -3.10064 1.81936 0
M  V30 6830 C 646.637 -3.14891 3.31199 0
M  V30 6831 C 647.634 -2.95768 4.27571 0
M  V30 6832 C 645.319 -3.37269 3.7223 0
M  V30 6833 C 647.313 -2.98942 5.6295 0
M  V30 6834 C 645 -3.40074 5.07733 0
M  V30 6835 C 645.998 -3.20932 6.02903 0
M  V30 6836 O 645.686 -3.23507 7.35934 0
M  V30 6837 H 645.418 -0.535014 0.413203 0
M  V30 6838 H 647.972 -1.14645 1.70428 0
M  V30 6839 H 646.202 -3.66005 1.24808 0
M  V30 6840 H 647.891 -3.70185 1.66486 0
M  V30 6841 H 648.657 -2.78302 3.97206 0
M  V30 6842 H 644.536 -3.51212 2.98615 0
M  V30 6843 H 648.08 -2.83919 6.37209 0
M  V30 6844 H 643.977 -3.5707 5.37747 0
M  V30 6845 H 644.745 -3.3984 7.44615 0
M  V30 6846 N 647.408 -1.11026 -1.11852 0
M  V30 6847 C 648.633 -0.879064 -1.87849 0
M  V30 6848 C 649.058 0.565406 -1.79401 0
M  V30 6849 O 648.416 1.39886 -1.15333 0
M  V30 6850 C 648.464 -1.33985 -3.34784 0
M  V30 6851 O 647.568 -0.508803 -4.09249 0
M  V30 6852 H 646.909 -0.316992 -0.583448 0
M  V30 6853 H 649.439 -1.47863 -1.41413 0
M  V30 6854 H 649.449 -1.33248 -3.85628 0
M  V30 6855 H 648.124 -2.39172 -3.40249 0
M  V30 6856 H 646.701 -0.581913 -3.68332 0
M  V30 6857 N 648.886 1.2938 -0.899927 0
M  V30 6858 C 649.816 2.30144 -0.39446 0
M  V30 6859 C 650.797 1.61611 0.530639 0
M  V30 6860 O 651.982 1.89119 0.441319 0
M  V30 6861 C 649.112 3.45229 0.37868 0
M  V30 6862 C 648.066 4.25564 -0.456012 0
M  V30 6863 C 647.392 5.32848 0.444637 0
M  V30 6864 C 648.692 4.93651 -1.70605 0
M  V30 6865 H 650.386 2.72673 -1.23653 0
M  V30 6866 H 647.932 1.31086 -0.596034 0
M  V30 6867 H 649.885 4.14797 0.743037 0
M  V30 6868 H 648.609 3.01545 1.25453 0
M  V30 6869 H 647.268 3.57704 -0.802704 0
M  V30 6870 H 646.916 4.85408 1.31863 0
M  V30 6871 H 646.616 5.87497 -0.110154 0
M  V30 6872 H 648.14 6.05268 0.805182 0
M  V30 6873 H 649.554 5.55655 -1.41141 0
M  V30 6874 H 647.951 5.58233 -2.20217 0
M  V30 6875 H 649.021 4.18926 -2.4419 0
M  V30 6876 N 650.364 0.662433 1.43002 0
M  V30 6877 C 651.314 -0.0460442 2.27954 0
M  V30 6878 C 652.298 -0.785753 1.40409 0
M  V30 6879 O 653.49 -0.666701 1.63964 0
M  V30 6880 C 650.619 -1.00532 3.2825 0
M  V30 6881 C 649.705 -0.263604 4.2328 0
M  V30 6882 N 650.096 0.724855 5.00579 0
M  V30 6883 C 648.394 -0.503778 4.43146 0
M  V30 6884 C 649.095 1.16594 5.69895 0
M  V30 6885 N 648.071 0.498345 5.41311 0
M  V30 6886 H 651.873 0.712314 2.85137 0
M  V30 6887 H 649.387 0.490469 1.54817 0
M  V30 6888 H 651.384 -1.52775 3.87899 0
M  V30 6889 H 650.044 -1.76364 2.72628 0
M  V30 6890 H 651.055 1.10393 5.05998 0
M  V30 6891 H 647.732 -1.24255 3.98581 0
M  V30 6892 H 649.122 1.98434 6.4193 0
M  V30 6893 N 651.842 -1.52309 0.404946 0
M  V30 6894 C 653.09 -2.01368 -0.17186 0
M  V30 6895 C 653.411 -1.29261 -1.46002 0
M  V30 6896 O 652.681 -0.41729 -1.91404 0
M  V30 6897 H 651.261 -0.744034 -0.0664993 0
M  V30 6898 H 653.923 -1.87263 0.540228 0
M  V30 6899 H 653.019 -3.09888 -0.370957 0
M  V30 6900 N 653.32 -0.135238 -1.57019 0
M  V30 6901 C 654.568 0.51777 -1.95355 0
M  V30 6902 C 654.889 1.6617 -1.02042 0
M  V30 6903 O 654.159 1.95738 -0.0797343 0
M  V30 6904 H 652.739 0.194264 -0.721298 0
M  V30 6905 H 655.401 -0.207983 -1.93787 0
M  V30 6906 H 654.497 0.901675 -2.98791 0
M  V30 6907 N 654.798 1.5699 0.138552 0
M  V30 6908 C 656.038 1.85619 0.855849 0
M  V30 6909 C 656.402 0.720663 1.77962 0
M  V30 6910 O 657.603 0.888221 2.53701 0
M  V30 6911 C 655.874 3.19447 1.60275 0
M  V30 6912 S 657.433 3.69656 2.36431 0
M  V30 6913 H 654.251 0.650926 0.286035 0
M  V30 6914 H 656.853 1.9516 0.115331 0
M  V30 6915 H 655.557 4.00053 0.915737 0
M  V30 6916 H 655.088 3.12935 2.38402 0
M  V30 6917 H 657.103 3.39595 3.61787 0
M  V30 6918 N 656.276 -0.40816 1.52223 0
M  V30 6919 C 657.206 -1.5042 1.78595 0
M  V30 6920 C 658.187 -1.57723 0.636974 0
M  V30 6921 O 659.372 -1.72982 0.882664 0
M  V30 6922 C 656.502 -2.88232 1.93751 0
M  V30 6923 C 655.456 -2.95779 3.09352 0
M  V30 6924 C 654.782 -4.35855 3.09732 0
M  V30 6925 C 656.082 -2.67175 4.48793 0
M  V30 6926 H 657.776 -1.28601 2.70374 0
M  V30 6927 H 655.322 -0.617221 1.30101 0
M  V30 6928 H 657.275 -3.64895 2.10783 0
M  V30 6929 H 655.999 -3.11347 0.986443 0
M  V30 6930 H 654.658 -2.21561 2.92072 0
M  V30 6931 H 654.306 -4.55981 2.12346 0
M  V30 6932 H 654.006 -4.41829 3.87377 0
M  V30 6933 H 655.53 -5.14451 3.28895 0
M  V30 6934 H 656.944 -3.3356 4.66273 0
M  V30 6935 H 655.341 -2.84523 5.28362 0
M  V30 6936 H 656.411 -1.62609 4.56822 0
M  V30 6937 N 657.755 -1.42862 -0.66545 0
M  V30 6938 C 659.001 -1.44043 -1.42757 0
M  V30 6939 C 659.334 -0.0599629 -1.94107 0
M  V30 6940 O 658.609 0.917286 -1.71511 0
M  V30 6941 C 658.892 -2.47266 -2.61786 0
M  V30 6942 C 658.745 -3.94539 -2.16007 0
M  V30 6943 C 660.064 -2.47365 -3.64003 0
M  V30 6944 H 657.183 -0.524506 -0.517748 0
M  V30 6945 H 659.825 -1.74335 -0.755466 0
M  V30 6946 H 657.975 -2.21565 -3.19126 0
M  V30 6947 H 659.647 -4.31254 -1.63762 0
M  V30 6948 H 657.89 -4.07957 -1.47491 0
M  V30 6949 H 658.561 -4.62357 -3.01546 0
M  V30 6950 H 661.037 -2.70243 -3.16399 0
M  V30 6951 H 659.913 -3.21552 -4.44854 0
M  V30 6952 H 660.174 -1.50299 -4.15767 0
M  V30 6953 N 659.233 0.902656 -1.29189 0
M  V30 6954 C 660.461 1.68639 -1.19869 0
M  V30 6955 C 660.876 1.87254 0.241121 0
M  V30 6956 O 660.233 1.40745 1.16177 0
M  V30 6957 C 660.284 3.07251 -1.90471 0
M  V30 6958 O 660.005 2.89488 -3.28829 0
M  V30 6959 C 661.506 4.01653 -1.8759 0
M  V30 6960 H 658.726 0.526802 -0.415596 0
M  V30 6961 H 661.27 1.12901 -1.7051 0
M  V30 6962 H 659.425 3.59774 -1.43672 0
M  V30 6963 H 659.839 3.77296 -3.64346 0
M  V30 6964 H 661.313 4.96339 -2.4156 0
M  V30 6965 H 661.79 4.30881 -0.850756 0
M  V30 6966 H 662.396 3.55061 -2.34119 0
M  V30 6967 N 660.711 1.11618 1.11262 0
M  V30 6968 C 662.127 0.850468 1.35053 0
M  V30 6969 C 662.327 -0.523868 1.94571 0
M  V30 6970 O 661.383 -1.2743 2.17986 0
M  V30 6971 C 662.696 1.96005 2.28041 0
M  V30 6972 C 664.244 1.98993 2.416 0
M  V30 6973 C 664.719 3.0916 3.37911 0
M  V30 6974 N 666.21 3.08547 3.45475 0
M  V30 6975 C 666.945 3.9043 4.19943 0
M  V30 6976 N 666.441 4.8228 4.97371 0
M  V30 6977 N 668.234 3.786 4.15474 0
M  V30 6978 H 660.385 2.00184 0.709932 0
M  V30 6979 H 662.648 0.870635 0.375099 0
M  V30 6980 H 662.354 2.9499 1.91503 0
M  V30 6981 H 662.228 1.85782 3.28275 0
M  V30 6982 H 664.615 1.00633 2.77411 0
M  V30 6983 H 664.696 2.13292 1.4121 0
M  V30 6984 H 664.34 4.07748 3.02827 0
M  V30 6985 H 664.27 2.92102 4.3816 0
M  V30 6986 H 666.761 2.42 2.90249 0
M  V30 6987 H 667.074 5.41289 5.51567 0
M  V30 6988 H 665.419 4.863 4.96525 0
M  V30 6989 H 668.61 3.06185 3.54074 0
M  V30 6990 H 668.783 4.42647 4.73253 0
M  V30 6991 N 662.189 -1.289 0.906776 0
M  V30 6992 C 663.437 -1.94883 0.535266 0
M  V30 6993 C 663.758 -1.71784 -0.922791 0
M  V30 6994 O 663.028 -1.05359 -1.65156 0
M  V30 6995 H 661.608 -0.721109 0.194962 0
M  V30 6996 H 664.27 -1.57018 1.15461 0
M  V30 6997 H 663.366 -3.03591 0.723821 0
M  V30 6998 N 663.667 -0.670007 -1.42649 0
M  V30 6999 C 664.895 -0.19854 -2.05945 0
M  V30 7000 C 665.31 1.14243 -1.50313 0
M  V30 7001 O 664.667 1.70872 -0.641027 0
M  V30 7002 C 664.718 -0.11966 -3.61302 0
M  V30 7003 O 664.439 -1.40764 -4.1487 0
M  V30 7004 C 665.94 0.375878 -4.41704 0
M  V30 7005 H 663.16 -0.0976894 -0.663851 0
M  V30 7006 H 665.704 -0.915392 -1.82868 0
M  V30 7007 H 663.859 0.547851 -3.83507 0
M  V30 7008 H 664.273 -1.27784 -5.08696 0
M  V30 7009 H 665.747 0.379988 -5.50691 0
M  V30 7010 H 666.224 1.41028 -4.15942 0
M  V30 7011 H 666.83 -0.259727 -4.24506 0
M  V30 7012 N 665.145 1.52092 -0.413018 0
M  V30 7013 C 666.092 2.27119 0.410558 0
M  V30 7014 C 667.062 1.29692 1.03774 0
M  V30 7015 O 668.247 1.58561 1.06128 0
M  V30 7016 C 665.387 3.09863 1.51918 0
M  V30 7017 C 664.5 4.22252 0.912528 0
M  V30 7018 C 663.635 4.92348 1.99417 0
M  V30 7019 C 662.674 5.96694 1.36466 0
M  V30 7020 N 661.811 6.60292 2.38661 0
M  V30 7021 H 666.651 2.97067 -0.235661 0
M  V30 7022 H 664.188 1.46542 -0.128055 0
M  V30 7023 H 666.146 3.56144 2.17295 0
M  V30 7024 H 664.776 2.42078 2.13537 0
M  V30 7025 H 663.828 3.80113 0.147697 0
M  V30 7026 H 665.14 4.9709 0.412717 0
M  V30 7027 H 664.294 5.42054 2.72512 0
M  V30 7028 H 663.033 4.17087 2.52764 0
M  V30 7029 H 662.038 5.46304 0.61906 0
M  V30 7030 H 663.263 6.73899 0.838827 0
M  V30 7031 H 661.209 5.87858 2.91134 0
M  V30 7032 H 661.126 7.30816 1.93503 0
M  V30 7033 H 662.394 7.14635 3.11314 0
M  V30 7034 N 666.623 0.143563 1.56945 0
M  V30 7035 C 667.869 -0.502787 1.97088 0
M  V30 7036 C 668.224 -1.62703 1.02691 0
M  V30 7037 O 667.517 -1.91502 0.0613323 0
M  V30 7038 C 667.711 -1.05885 3.41355 0
M  V30 7039 C 667.54 0.00998209 4.49699 0
M  V30 7040 C 666.31 0.450229 5.0329 0
M  V30 7041 C 668.508 0.800174 5.08037 0
M  V30 7042 N 666.49 1.50227 5.95235 0
M  V30 7043 C 667.861 1.70279 5.96158 0
M  V30 7044 C 669.916 0.848344 4.9062 0
M  V30 7045 C 668.619 2.64945 6.68728 0
M  V30 7046 C 670.645 1.78281 5.63888 0
M  V30 7047 C 670.007 2.67296 6.51715 0
M  V30 7048 H 666.106 -0.152891 0.766908 0
M  V30 7049 H 668.69 0.23737 1.93248 0
M  V30 7050 H 666.861 -1.76863 3.45795 0
M  V30 7051 H 668.593 -1.67154 3.68567 0
M  V30 7052 H 665.348 0.0531355 4.7357 0
M  V30 7053 H 665.772 2.02795 6.45913 0
M  V30 7054 H 670.414 0.174228 4.22441 0
M  V30 7055 H 668.132 3.33358 7.36137 0
M  V30 7056 H 671.718 1.82584 5.52408 0
M  V30 7057 H 670.598 3.38428 7.07415 0
M  V30 7058 N 668.101 -1.57061 -0.130224 0
M  V30 7059 C 669.35 -1.83446 -0.838488 0
M  V30 7060 C 669.663 -0.727468 -1.81569 0
M  V30 7061 O 670.869 -0.877394 -2.56932 0
M  V30 7062 C 669.325 -3.25201 -1.54182 0
M  V30 7063 C 668.933 -4.4388 -0.606178 0
M  V30 7064 C 670.677 -3.60844 -2.23588 0
M  V30 7065 C 668.584 -5.76661 -1.31209 0
M  V30 7066 H 667.514 -0.684185 -0.316871 0
M  V30 7067 H 670.165 -1.83273 -0.0912059 0
M  V30 7068 H 668.547 -3.1981 -2.33533 0
M  V30 7069 H 669.721 -4.60545 0.153308 0
M  V30 7070 H 668.036 -4.16395 -0.0196705 0
M  V30 7071 H 670.633 -4.57313 -2.77072 0
M  V30 7072 H 670.976 -2.87724 -3.00867 0
M  V30 7073 H 671.509 -3.67971 -1.51137 0
M  V30 7074 H 668.248 -6.52922 -0.580823 0
M  V30 7075 H 667.768 -5.63902 -2.04387 0
M  V30 7076 H 669.447 -6.20035 -1.8484 0
M  V30 7077 N 669.579 0.400081 -1.52437 0
M  V30 7078 C 670.542 1.4707 -1.75793 0
M  V30 7079 C 671.542 1.48036 -0.627856 0
M  V30 7080 O 672.732 1.49401 -0.895817 0
M  V30 7081 C 669.864 2.86427 -1.84858 0
M  V30 7082 H 671.057 1.27649 -2.71377 0
M  V30 7083 H 668.61 0.631141 -1.42991 0
M  V30 7084 H 669.345 3.11207 -0.912194 0
M  V30 7085 H 669.13 2.87128 -2.6702 0
M  V30 7086 H 670.62 3.64023 -2.04638 0
M  V30 7087 N 671.057 1.43213 0.657864 0
M  V30 7088 C 672.005 1.48271 1.79216 0
M  V30 7089 C 672.999 0.35675 1.65601 0
M  V30 7090 O 674.205 0.530535 1.72004 0
M  V30 7091 H 670.58 0.464729 0.591211 0
M  V30 7092 H 672.551 2.43792 1.7207 0
M  V30 7093 C 671.3 1.41837 3.17455 0
M  V30 7094 H 670.623 2.27781 3.28567 0
M  V30 7095 H 672.063 1.49438 3.96793 0
M  V30 7096 C 670.522 0.135347 3.36628 0
M  V30 7097 O 671.052 -0.805199 3.93547 0
M  V30 7098 N 669.258 0.0470316 2.90562 0
M  V30 7099 H 668.805 0.813221 2.44427 0
M  V30 7100 H 668.763 -0.810737 3.03767 0
M  V30 7101 N 672.536 -0.895792 1.29666 0
M  V30 7102 C 673.484 -2.02173 1.15017 0
M  V30 7103 C 674.478 -1.69276 0.0647651 0
M  V30 7104 O 675.684 -1.7859 0.224846 0
M  V30 7105 H 672.059 -0.662719 0.355397 0
M  V30 7106 H 674.03 -2.11666 2.10334 0
M  V30 7107 C 672.779 -3.37212 0.847555 0
M  V30 7108 H 672.102 -3.6303 1.67479 0
M  V30 7109 H 673.542 -4.16668 0.785106 0
M  V30 7110 C 672.001 -3.33891 -0.44929 0
M  V30 7111 O 672.531 -3.73673 -1.47415 0
M  V30 7112 N 670.737 -2.86991 -0.456547 0
M  V30 7113 H 670.284 -2.54813 0.377925 0
M  V30 7114 H 670.242 -2.85152 -1.32423 0
M  V30 7115 N 674.014 -1.12206 -1.10668 0
M  V30 7116 C 675.26 -0.887096 -1.83036 0
M  V30 7117 C 675.615 0.580887 -1.83422 0
M  V30 7118 O 674.908 1.42379 -1.28213 0
M  V30 7119 C 675.102 -1.39276 -3.29146 0
M  V30 7120 C 674.931 -2.90837 -3.42992 0
M  V30 7121 C 673.701 -3.59047 -3.55546 0
M  V30 7122 C 675.899 -3.8885 -3.36601 0
M  V30 7123 N 673.881 -4.98747 -3.57945 0
M  V30 7124 C 675.252 -5.14666 -3.45716 0
M  V30 7125 C 677.307 -3.81296 -3.20184 0
M  V30 7126 C 676.01 -6.33814 -3.40106 0
M  V30 7127 C 678.036 -4.99965 -3.15895 0
M  V30 7128 C 677.398 -6.24637 -3.25589 0
M  V30 7129 H 673.497 -0.377857 -0.684652 0
M  V30 7130 H 676.081 -1.42791 -1.32358 0
M  V30 7131 H 674.252 -0.879026 -3.78322 0
M  V30 7132 H 675.984 -1.10011 -3.89461 0
M  V30 7133 H 672.739 -3.09533 -3.5845 0
M  V30 7134 H 673.163 -5.71606 -3.62762 0
M  V30 7135 H 677.805 -2.85806 -3.11569 0
M  V30 7136 H 675.523 -7.29574 -3.47487 0
M  V30 7137 H 679.109 -4.95847 -3.04347 0
M  V30 7138 H 677.989 -7.14921 -3.22269 0
M  V30 7139 N 675.492 1.28418 -0.913599 0
M  V30 7140 C 676.741 1.94265 -0.542572 0
M  V30 7141 C 677.054 1.72709 0.918207 0
M  V30 7142 O 678.26 2.32778 1.39738 0
M  V30 7143 C 676.716 3.47956 -0.919507 0
M  V30 7144 C 676.324 3.78291 -2.4 0
M  V30 7145 C 678.068 4.19962 -0.619057 0
M  V30 7146 C 675.975 5.2529 -2.71707 0
M  V30 7147 H 674.905 0.727213 -0.199192 0
M  V30 7148 H 677.556 1.45931 -1.11249 0
M  V30 7149 H 675.938 3.9502 -0.278372 0
M  V30 7150 H 677.112 3.42035 -3.08786 0
M  V30 7151 H 675.427 3.19456 -2.67089 0
M  V30 7152 H 678.024 5.28178 -0.832623 0
M  V30 7153 H 678.367 4.13935 0.443126 0
M  V30 7154 H 678.9 3.78674 -1.21865 0
M  V30 7155 H 675.639 5.36394 -3.76778 0
M  V30 7156 H 675.159 5.62743 -2.07559 0
M  V30 7157 H 676.838 5.93027 -2.58703 0
M  V30 7158 N 676.97 0.677563 1.42291 0
M  V30 7159 C 677.918 -0.0106755 2.32598 0
M  V30 7160 C 678.912 -0.787643 1.49975 0
M  V30 7161 O 680.118 -0.695295 1.66029 0
M  V30 7162 H 676.493 -0.0222482 0.751671 0
M  V30 7163 H 678.464 0.768312 2.88339 0
M  V30 7164 C 677.213 -0.946142 3.3458 0
M  V30 7165 H 676.536 -0.357701 3.98197 0
M  V30 7166 H 677.976 -1.39634 4.00348 0
M  V30 7167 C 676.435 -2.05383 2.67057 0
M  V30 7168 O 676.965 -3.1406 2.50458 0
M  V30 7169 N 675.171 -1.82635 2.26038 0
M  V30 7170 H 674.718 -0.942534 2.39737 0
M  V30 7171 H 674.676 -2.56937 1.81192 0
M  V30 7172 N 678.448 -1.51871 0.421078 0
M  V30 7173 C 679.694 -2.02237 -0.151014 0
M  V30 7174 C 680.027 -1.30554 -1.43768 0
M  V30 7175 O 679.302 -0.41546 -1.90011 0
M  V30 7176 C 679.585 -3.5802 -0.386482 0
M  V30 7177 C 679.438 -4.40339 0.9177 0
M  V30 7178 C 680.757 -4.24444 -1.16342 0
M  V30 7179 H 677.876 -0.735062 -0.0534102 0
M  V30 7180 H 680.518 -1.81656 0.556888 0
M  V30 7181 H 678.668 -3.75688 -0.989494 0
M  V30 7182 H 680.34 -4.34357 1.55344 0
M  V30 7183 H 678.583 -4.06073 1.526 0
M  V30 7184 H 679.254 -5.47451 0.707187 0
M  V30 7185 H 681.73 -4.10948 -0.652788 0
M  V30 7186 H 680.606 -5.33358 -1.29693 0
M  V30 7187 H 680.867 -3.84204 -2.18724 0
M  V30 7188 N 679.926 -0.151884 -1.56866 0
M  V30 7189 C 681.203 0.543328 -1.87902 0
M  V30 7190 C 681.583 1.82636 -1.05864 0
M  V30 7191 O 680.931 2.28028 -0.146868 0
M  V30 7192 C 681.141 0.804056 -3.39611 0
M  V30 7193 C 682.489 1.14267 -4.08935 0
M  V30 7194 O 683.513 0.893248 -3.44818 0
M  V30 7195 O 682.372 1.61229 -5.22176 0
M  V30 7196 H 679.466 0.277724 -0.778973 0
M  V30 7197 H 682.012 -0.188862 -1.68646 0
M  V30 7198 H 680.784 -0.103772 -3.91162 0
M  V30 7199 H 680.407 1.59025 -3.64413 0
M  V30 7200 N 681.404 1.57128 0.121893 0
M  V30 7201 C 682.815 1.73902 0.679348 0
M  V30 7202 C 683.166 0.770135 1.80453 0
M  V30 7203 O 682.291 -0.0576083 2.16323 0
M  V30 7204 C 682.886 3.15328 1.2391 0
M  V30 7205 C 681.445 3.33618 1.74288 0
M  V30 7206 C 680.592 2.6978 0.641414 0
M  V30 7207 H 683.543 1.58359 -0.104 0
M  V30 7208 H 683.564 3.16718 2.10879 0
M  V30 7209 H 683.076 3.85821 0.419957 0
M  V30 7210 H 681.177 2.68162 2.58689 0
M  V30 7211 H 681.29 4.4176 1.85432 0
M  V30 7212 H 679.654 2.30935 1.0743 0
M  V30 7213 H 680.437 3.42895 -0.166707 0
M  V30 7214 N 682.882 -0.391992 1.52647 0
M  V30 7215 C 684.107 -1.16312 1.71716 0
M  V30 7216 C 684.532 -1.83042 0.433279 0
M  V30 7217 O 683.89 -1.70705 -0.610707 0
M  V30 7218 C 683.938 -2.18908 2.86551 0
M  V30 7219 O 683.042 -3.2543 2.53316 0
M  V30 7220 H 682.383 -0.338743 0.571095 0
M  V30 7221 H 684.913 -0.457202 1.99426 0
M  V30 7222 H 684.923 -2.62954 3.1196 0
M  V30 7223 H 683.598 -1.69726 3.79692 0
M  V30 7224 H 682.175 -2.86543 2.38637 0
M  V30 7225 N 684.36 -1.4356 -0.65026 0
M  V30 7226 C 685.776 -1.27025 -0.966269 0
M  V30 7227 C 685.976 -0.192117 -2.00582 0
M  V30 7228 O 685.032 0.428459 -2.48838 0
M  V30 7229 C 686.345 -2.63556 -1.44772 0
M  V30 7230 C 687.893 -2.71111 -1.56421 0
M  V30 7231 C 688.368 -4.08067 -2.07956 0
M  V30 7232 N 689.859 -4.10146 -2.15254 0
M  V30 7233 C 690.594 -5.12952 -2.56258 0
M  V30 7234 N 690.09 -6.26129 -2.96537 0
M  V30 7235 N 691.883 -5.00306 -2.56224 0
M  V30 7236 H 684.034 -2.12367 0.0375758 0
M  V30 7237 H 686.297 -0.946894 -0.0457782 0
M  V30 7238 H 686.003 -3.43429 -0.758271 0
M  V30 7239 H 685.877 -2.89152 -2.42221 0
M  V30 7240 H 688.264 -1.91569 -2.24467 0
M  V30 7241 H 688.345 -2.49277 -0.573967 0
M  V30 7242 H 687.989 -4.88077 -1.40511 0
M  V30 7243 H 687.919 -4.27266 -3.07817 0
M  V30 7244 H 690.41 -3.28453 -1.86887 0
M  V30 7245 H 690.723 -7.00403 -3.26582 0
M  V30 7246 H 689.068 -6.29597 -2.94334 0
M  V30 7247 H 692.259 -4.10952 -2.24135 0
M  V30 7248 H 692.432 -5.80553 -2.87857 0
M  V30 7249 N 685.838 0.888903 -1.30139 0
M  V30 7250 C 686.801 1.97576 -1.16174 0
M  V30 7251 C 687.801 1.60525 -0.094086 0
M  V30 7252 O 688.991 1.70812 -0.341889 0
M  V30 7253 C 686.123 3.3188 -0.778983 0
M  V30 7254 H 687.316 2.11393 -2.12728 0
M  V30 7255 H 684.869 1.0748 -1.1348 0
M  V30 7256 H 685.604 3.23765 0.186225 0
M  V30 7257 H 685.389 3.60141 -1.55051 0
M  V30 7258 H 686.879 4.11612 -0.704631 0
M  V30 7259 N 687.317 1.12792 1.10072 0
M  V30 7260 C 688.733 0.864745 1.34143 0
M  V30 7261 C 688.933 -0.503201 1.95116 0
M  V30 7262 O 687.989 -1.25111 2.19325 0
M  V30 7263 C 689.302 1.98413 2.25949 0
M  V30 7264 C 690.85 2.01545 2.39476 0
M  V30 7265 C 691.325 3.12727 3.34613 0
M  V30 7266 N 692.816 3.12194 3.42183 0
M  V30 7267 C 693.551 3.94862 4.15779 0
M  V30 7268 N 693.047 4.87528 4.92228 0
M  V30 7269 N 694.84 3.82985 4.11435 0
M  V30 7270 H 686.991 2.00926 0.68866 0
M  V30 7271 H 689.254 0.874564 0.365844 0
M  V30 7272 H 688.96 2.97005 1.88364 0
M  V30 7273 H 688.834 1.89254 3.26287 0
M  V30 7274 H 691.221 1.0357 2.76328 0
M  V30 7275 H 691.302 2.14777 1.3894 0
M  V30 7276 H 690.946 4.10936 2.98486 0
M  V30 7277 H 690.876 2.96732 4.35037 0
M  V30 7278 H 693.367 2.45065 2.87666 0
M  V30 7279 H 693.68 5.47109 5.45794 0
M  V30 7280 H 692.025 4.91539 4.9134 0
M  V30 7281 H 695.216 3.09923 3.50807 0
M  V30 7282 H 695.389 4.47641 4.68531 0
M  V30 7283 N 688.795 -1.27931 0.920396 0
M  V30 7284 C 689.727 -2.26175 0.371169 0
M  V30 7285 C 690.74 -1.55122 -0.494065 0
M  V30 7286 O 691.929 -1.75825 -0.30787 0
M  V30 7287 C 689.029 -3.35376 -0.487481 0
M  V30 7288 C 688.202 -4.35943 0.356772 0
M  V30 7289 C 687.261 -5.24374 -0.438042 0
M  V30 7290 O 686.287 -5.68998 0.151715 0
M  V30 7291 N 687.489 -5.53823 -1.73956 0
M  V30 7292 H 690.254 -2.73938 1.21564 0
M  V30 7293 H 687.815 -1.41482 0.787047 0
M  V30 7294 H 689.807 -3.91476 -1.02609 0
M  V30 7295 H 688.377 -2.87269 -1.23269 0
M  V30 7296 H 687.597 -3.7921 1.07672 0
M  V30 7297 H 688.885 -5.0015 0.934206 0
M  V30 7298 H 688.283 -5.19413 -2.24114 0
M  V30 7299 H 686.84 -6.12653 -2.22486 0
M  V30 7300 N 690.273 -0.685099 -1.4193 0
M  V30 7301 C 691.236 -0.0222632 -2.29189 0
M  V30 7302 C 692.236 0.7186 -1.4385 0
M  V30 7303 O 693.426 0.555058 -1.6512 0
M  V30 7304 C 690.558 0.979013 -3.2654 0
M  V30 7305 H 691.751 -0.790424 -2.89296 0
M  V30 7306 H 689.304 -0.448012 -1.49742 0
M  V30 7307 H 690.039 1.77531 -2.71392 0
M  V30 7308 H 689.824 0.451037 -3.89497 0
M  V30 7309 H 691.314 1.44091 -3.91954 0
M  V30 7310 N 691.751 1.51645 -0.429126 0
M  V30 7311 C 692.681 2.30434 0.377148 0
M  V30 7312 C 693.662 1.35493 1.02838 0
M  V30 7313 O 694.847 1.6441 1.03359 0
M  V30 7314 C 691.977 3.14038 1.48315 0
M  V30 7315 C 690.931 4.1719 0.955855 0
M  V30 7316 C 690.257 4.89263 2.15698 0
M  V30 7317 C 691.557 5.223 -0.00402136 0
M  V30 7318 H 693.251 2.98085 -0.280336 0
M  V30 7319 H 690.797 1.43354 -0.136265 0
M  V30 7320 H 692.75 3.67933 2.05435 0
M  V30 7321 H 691.474 2.44193 2.16881 0
M  V30 7322 H 690.133 3.64335 0.406929 0
M  V30 7323 H 689.781 4.15929 2.82864 0
M  V30 7324 H 689.481 5.59009 1.81059 0
M  V30 7325 H 691.005 5.45978 2.73387 0
M  V30 7326 H 692.419 5.71315 0.476607 0
M  V30 7327 H 690.816 5.99525 -0.26258 0
M  V30 7328 H 691.886 4.75638 -0.943236 0
M  V30 7329 N 693.229 0.160201 1.56784 0
M  V30 7330 C 694.476 -0.487588 1.96542 0
M  V30 7331 C 694.804 -1.63999 1.04569 0
M  V30 7332 O 694.059 -1.95546 0.0775211 0
M  V30 7333 C 694.358 -1.02259 3.42459 0
M  V30 7334 C 694.024 0.0127436 4.50898 0
M  V30 7335 C 692.686 0.297318 4.80281 0
M  V30 7336 C 695.038 0.716078 5.16257 0
M  V30 7337 C 692.366 1.29081 5.72324 0
M  V30 7338 C 694.718 1.69847 6.09372 0
M  V30 7339 C 693.382 1.99061 6.37127 0
M  V30 7340 H 692.652 -0.178421 0.719199 0
M  V30 7341 H 695.299 0.249818 1.89864 0
M  V30 7342 H 693.604 -1.8376 3.46034 0
M  V30 7343 H 695.301 -1.53261 3.70556 0
M  V30 7344 H 691.891 -0.219235 4.28039 0
M  V30 7345 H 696.075 0.509428 4.93679 0
M  V30 7346 H 691.331 1.52344 5.92116 0
M  V30 7347 H 695.505 2.2489 6.59088 0
M  V30 7348 H 693.132 2.76194 7.08252 0
M  V30 7349 N 694.707 -1.5719 -0.113559 0
M  V30 7350 C 695.639 -1.97393 -1.16484 0
M  V30 7351 C 696.652 -0.873964 -1.37352 0
M  V30 7352 O 697.841 -1.15222 -1.36331 0
M  V30 7353 C 694.941 -2.26174 -2.52386 0
M  V30 7354 C 694.114 -3.57479 -2.52046 0
M  V30 7355 C 693.173 -3.74409 -3.69735 0
M  V30 7356 O 692.199 -4.46463 -3.53071 0
M  V30 7357 N 693.401 -3.13588 -4.88511 0
M  V30 7358 H 696.166 -2.88184 -0.822814 0
M  V30 7359 H 693.727 -1.59044 -0.302769 0
M  V30 7360 H 695.719 -2.3471 -3.29687 0
M  V30 7361 H 694.289 -1.41483 -2.7875 0
M  V30 7362 H 693.509 -3.60081 -1.60421 0
M  V30 7363 H 694.797 -4.43775 -2.48881 0
M  V30 7364 H 694.195 -2.55026 -5.04953 0
M  V30 7365 H 692.752 -3.27637 -5.63469 0
M  V30 7366 N 696.185 0.383891 -1.52853 0
M  V30 7367 C 697.117 1.48889 -1.74255 0
M  V30 7368 C 698.13 1.50405 -0.623063 0
M  V30 7369 O 699.319 1.54215 -0.898887 0
M  V30 7370 C 696.419 2.87721 -1.79081 0
M  V30 7371 C 695.592 3.10111 -3.08464 0
M  V30 7372 C 694.651 4.28954 -3.0477 0
M  V30 7373 O 693.677 4.25012 -3.78621 0
M  V30 7374 N 694.879 5.35411 -2.24311 0
M  V30 7375 H 697.644 1.30915 -2.69595 0
M  V30 7376 H 695.205 0.573454 -1.51404 0
M  V30 7377 H 697.197 3.65333 -1.7411 0
M  V30 7378 H 695.767 2.99029 -0.911052 0
M  V30 7379 H 694.987 2.20319 -3.26884 0
M  V30 7380 H 696.275 3.21928 -3.94005 0
M  V30 7381 H 695.673 5.41471 -1.63787 0
M  V30 7382 H 694.23 6.1167 -2.25175 0
M  V30 7383 N 697.663 1.43903 0.642637 0
M  V30 7384 C 698.573 1.52349 1.78401 0
M  V30 7385 C 699.589 0.409869 1.69104 0
M  V30 7386 O 700.765 0.665548 1.90085 0
M  V30 7387 C 697.83 1.45408 3.14734 0
M  V30 7388 C 696.891 2.67528 3.35749 0
M  V30 7389 C 696.124 2.60909 4.65577 0
M  V30 7390 O 696.347 1.6627 5.45628 0
M  V30 7391 O 695.281 3.5158 4.88544 0
M  V30 7392 H 699.107 2.48752 1.7423 0
M  V30 7393 H 696.692 1.26021 0.802439 0
M  V30 7394 H 698.574 1.44019 3.96026 0
M  V30 7395 H 697.249 0.521437 3.19473 0
M  V30 7396 H 696.156 2.74487 2.5418 0
M  V30 7397 H 697.489 3.598 3.35864 0
M  V30 7398 N 699.141 -0.881989 1.30609 0
M  V30 7399 C 700.074 -1.99066 1.11571 0
M  V30 7400 C 701.052 -1.62584 0.022516 0
M  V30 7401 O 702.236 -1.87671 0.176644 0
M  V30 7402 C 699.363 -3.3134 0.702237 0
M  V30 7403 C 698.409 -3.86807 1.79673 0
M  V30 7404 S 699.242 -4.13735 3.39976 0
M  V30 7405 C 700.398 -5.49024 3.00538 0
M  V30 7406 H 700.631 -2.1491 2.05429 0
M  V30 7407 H 698.164 -1.03074 1.14957 0
M  V30 7408 H 700.122 -4.07796 0.470415 0
M  V30 7409 H 698.783 -3.13349 -0.217034 0
M  V30 7410 H 697.976 -4.82397 1.45977 0
M  V30 7411 H 697.578 -3.17102 1.98298 0
M  V30 7412 H 699.87 -6.30208 2.48684 0
M  V30 7413 H 700.813 -5.8766 3.95046 0
M  V30 7414 H 701.221 -5.11726 2.3832 0
M  V30 7415 N 700.619 -1.13374 -1.09472 0
M  V30 7416 C 701.582 -0.813639 -2.14272 0
M  V30 7417 C 702.582 0.176677 -1.59826 0
M  V30 7418 O 703.772 -0.0503441 -1.74127 0
M  V30 7419 C 700.904 -0.210897 -3.40247 0
M  V30 7420 H 702.097 -1.74229 -2.44099 0
M  V30 7421 H 699.65 -0.938304 -1.25002 0
M  V30 7422 H 700.385 0.726998 -3.16046 0
M  V30 7423 H 700.17 -0.924048 -3.81056 0
M  V30 7424 H 701.66 -0.00377603 -4.176 0
M  V30 7425 N 702.098 1.27442 -0.927168 0
M  V30 7426 C 703.514 1.46754 -0.627329 0
M  V30 7427 C 703.714 1.83902 0.823549 0
M  V30 7428 O 702.77 1.95215 1.60148 0
M  V30 7429 C 704.083 2.56045 -1.57674 0
M  V30 7430 C 705.631 2.69906 -1.58491 0
M  V30 7431 C 706.106 3.82355 -2.52128 0
M  V30 7432 N 707.597 3.89728 -2.50332 0
M  V30 7433 C 708.332 4.76155 -3.19475 0
M  V30 7434 N 707.828 5.67073 -3.97995 0
M  V30 7435 N 709.621 4.6988 -3.08496 0
M  V30 7436 H 701.772 1.01613 -1.86517 0
M  V30 7437 H 704.035 0.507443 -0.800753 0
M  V30 7438 H 703.741 2.35542 -2.61176 0
M  V30 7439 H 703.615 3.53423 -1.31804 0
M  V30 7440 H 706.002 2.89792 -0.557208 0
M  V30 7441 H 706.083 1.73018 -1.8841 0
M  V30 7442 H 705.727 3.63224 -3.55008 0
M  V30 7443 H 705.657 4.7867 -2.19505 0
M  V30 7444 H 708.148 3.24717 -1.93306 0
M  V30 7445 H 708.461 6.2988 -4.4774 0
M  V30 7446 H 706.806 5.6687 -4.02098 0
M  V30 7447 H 709.997 3.97848 -2.46646 0
M  V30 7448 H 710.17 5.37017 -3.62652 0
M  V30 7449 N 703.576 0.692616 1.41565 0
M  V30 7450 C 704.506 0.0397325 2.33466 0
M  V30 7451 C 705.487 -0.770334 1.51657 0
M  V30 7452 O 706.672 -0.723903 1.80203 0
M  V30 7453 C 703.802 -0.899495 3.3545 0
M  V30 7454 C 702.756 -0.196738 4.27548 0
M  V30 7455 C 702.082 -1.25012 5.19881 0
M  V30 7456 C 703.382 0.935158 5.1386 0
M  V30 7457 H 705.076 0.807296 2.88311 0
M  V30 7458 H 702.622 0.389665 1.38628 0
M  V30 7459 H 704.575 -1.36545 3.98665 0
M  V30 7460 H 703.299 -1.69869 2.78948 0
M  V30 7461 H 701.958 0.249158 3.65752 0
M  V30 7462 H 701.606 -2.04177 4.59696 0
M  V30 7463 H 701.306 -0.784931 5.82334 0
M  V30 7464 H 702.83 -1.71665 5.85972 0
M  V30 7465 H 704.244 0.549619 5.70659 0
M  V30 7466 H 702.641 1.32726 5.85238 0
M  V30 7467 H 703.711 1.77613 4.512 0
M  V30 7468 N 705.054 -1.51416 0.437162 0
M  V30 7469 C 706.017 -2.26312 -0.362729 0
M  V30 7470 C 707.017 -1.29748 -0.949847 0
M  V30 7471 O 708.207 -1.53462 -0.824325 0
M  V30 7472 C 705.339 -3.05475 -1.5132 0
M  V30 7473 H 706.532 -2.98459 0.29365 0
M  V30 7474 H 704.085 -1.55137 0.190327 0
M  V30 7475 H 704.82 -2.37744 -2.20563 0
M  V30 7476 H 704.605 -3.76401 -1.09838 0
M  V30 7477 H 706.095 -3.62209 -2.07833 0
M  V30 7478 N 706.532 -0.168513 -1.56696 0
M  V30 7479 C 707.948 0.187686 -1.58493 0
M  V30 7480 C 708.148 1.63063 -1.18375 0
M  V30 7481 O 707.204 2.36142 -0.894042 0
M  V30 7482 C 708.517 -0.0905858 -3.00564 0
M  V30 7483 C 710.065 -0.028575 -3.12987 0
M  V30 7484 C 710.54 -0.279799 -4.57145 0
M  V30 7485 N 712.031 -0.227476 -4.62641 0
M  V30 7486 C 712.766 -0.396073 -5.7203 0
M  V30 7487 N 712.262 -0.623572 -6.89988 0
M  V30 7488 N 714.055 -0.332173 -5.61118 0
M  V30 7489 H 706.206 -1.11042 -1.81062 0
M  V30 7490 H 708.469 -0.441235 -0.839056 0
M  V30 7491 H 708.175 -1.09006 -3.34381 0
M  V30 7492 H 708.049 0.619078 -3.72085 0
M  V30 7493 H 710.436 0.961471 -2.78998 0
M  V30 7494 H 710.517 -0.770905 -2.43907 0
M  V30 7495 H 710.161 -1.26704 -4.91842 0
M  V30 7496 H 710.091 0.48311 -5.24379 0
M  V30 7497 H 712.582 -0.0571723 -3.77857 0
M  V30 7498 H 712.895 -0.741745 -7.69232 0
M  V30 7499 H 711.24 -0.660153 -6.91858 0
M  V30 7500 H 714.431 -0.155051 -4.67843 0
M  V30 7501 H 714.604 -0.466994 -6.46315 0
M  V30 7502 N 708.01 1.57248 0.105221 0
M  V30 7503 C 708.92 2.04653 1.14693 0
M  V30 7504 C 709.936 0.969488 1.44489 0
M  V30 7505 O 711.112 1.28196 1.55331 0
M  V30 7506 C 708.177 2.45297 2.45011 0
M  V30 7507 C 707.238 3.67148 2.22489 0
M  V30 7508 C 706.471 4.05844 3.46592 0
M  V30 7509 O 706.694 3.44736 4.54437 0
M  V30 7510 O 705.628 4.98862 3.36779 0
M  V30 7511 H 709.454 2.93663 0.774336 0
M  V30 7512 H 707.039 1.45998 0.31701 0
M  V30 7513 H 708.921 2.72112 3.21766 0
M  V30 7514 H 707.596 1.59429 2.81717 0
M  V30 7515 H 706.503 3.45463 1.43547 0
M  V30 7516 H 707.836 4.53764 1.9068 0
M  V30 7517 N 709.488 -0.375779 1.53054 0
M  V30 7518 C 710.736 -1.11727 1.68409 0
M  V30 7519 C 711.057 -1.90127 0.43323 0
M  V30 7520 O 710.327 -1.87945 -0.552595 0
M  V30 7521 H 708.907 -0.415451 0.620813 0
M  V30 7522 H 711.569 -0.424869 1.90213 0
M  V30 7523 H 710.665 -1.8128 2.54055 0
M  V30 7524 N 710.966 -1.44241 -0.634997 0
M  V30 7525 C 712.214 -1.46531 -1.39187 0
M  V30 7526 C 712.535 -0.0976441 -1.94755 0
M  V30 7527 O 711.805 0.869528 -1.75545 0
M  V30 7528 H 710.385 -0.539544 -0.516625 0
M  V30 7529 H 713.047 -1.79989 -0.747655 0
M  V30 7530 H 712.143 -2.18848 -2.22513 0
M  V30 7531 N 712.444 0.87505 -1.31075 0
M  V30 7532 C 713.672 1.66058 -1.23419 0
M  V30 7533 C 714.087 1.87723 0.201347 0
M  V30 7534 O 713.444 1.43178 1.13165 0
M  V30 7535 C 713.495 3.03142 -1.96945 0
M  V30 7536 O 713.216 2.82448 -3.34895 0
M  V30 7537 C 714.717 3.97583 -1.96067 0
M  V30 7538 H 711.937 0.517868 -0.426677 0
M  V30 7539 H 714.481 1.09258 -1.72867 0
M  V30 7540 H 712.636 3.56645 -1.51271 0
M  V30 7541 H 713.05 3.69483 -3.72267 0
M  V30 7542 H 714.524 4.91104 -2.52034 0
M  V30 7543 H 715.001 4.2898 -0.941961 0
M  V30 7544 H 715.607 3.50015 -2.41597 0
M  V30 7545 N 713.922 1.13953 1.08869 0
M  V30 7546 C 715.199 0.815768 1.77777 0
M  V30 7547 C 715.579 -0.691624 1.99449 0
M  V30 7548 O 714.927 -1.63085 1.60049 0
M  V30 7549 C 715.137 1.60916 3.09689 0
M  V30 7550 C 716.485 1.80549 3.84301 0
M  V30 7551 O 717.509 1.57562 3.19457 0
M  V30 7552 O 716.368 2.18946 5.00724 0
M  V30 7553 H 713.462 0.298445 0.771271 0
M  V30 7554 H 716.008 1.24446 1.15374 0
M  V30 7555 H 714.78 2.6333 2.89435 0
M  V30 7556 H 714.403 1.17578 3.79817 0
M  V30 7557 N 715.4 -1.26948 0.933913 0
M  V30 7558 C 716.625 -1.98724 0.593589 0
M  V30 7559 C 717.05 -1.6915 -0.822801 0
M  V30 7560 O 716.408 -0.93533 -1.5531 0
M  V30 7561 C 716.456 -3.50834 0.833542 0
M  V30 7562 O 715.56 -4.12284 -0.0978788 0
M  V30 7563 H 714.901 -0.623683 0.227849 0
M  V30 7564 H 717.431 -1.61599 1.25486 0
M  V30 7565 H 717.441 -4.01018 0.75156 0
M  V30 7566 H 716.116 -3.71691 1.86597 0
M  V30 7567 H 714.693 -3.72884 0.0345443 0
M  V30 7568 N 716.879 -0.700114 -1.41195 0
M  V30 7569 C 717.811 0.00155823 -2.292 0
M  V30 7570 C 718.824 0.739736 -1.45023 0
M  V30 7571 O 720.013 0.589684 -1.68478 0
M  V30 7572 C 717.113 1.02635 -3.22985 0
M  V30 7573 C 716.286 0.356871 -4.35942 0
M  V30 7574 C 715.345 1.28491 -5.10271 0
M  V30 7575 O 714.371 0.775562 -5.63892 0
M  V30 7576 N 715.573 2.61699 -5.18164 0
M  V30 7577 H 718.338 -0.754008 -2.9006 0
M  V30 7578 H 715.899 -0.546504 -1.52397 0
M  V30 7579 H 717.891 1.64902 -3.6958 0
M  V30 7580 H 716.461 1.68341 -2.63401 0
M  V30 7581 H 715.681 -0.445753 -3.91672 0
M  V30 7582 H 716.969 -0.108469 -5.08684 0
M  V30 7583 H 716.367 3.05594 -4.76056 0
M  V30 7584 H 714.924 3.19149 -5.6832 0
M  V30 7585 N 718.357 1.51182 -0.445186 0
M  V30 7586 C 719.768 1.86693 0.0160999 0
M  V30 7587 C 720.119 1.36183 1.4124 0
M  V30 7588 O 719.244 0.715895 2.04215 0
M  V30 7589 C 719.839 3.38781 0.0359918 0
M  V30 7590 C 718.398 3.73799 0.441715 0
M  V30 7591 C 717.545 2.74947 -0.360511 0
M  V30 7592 H 720.496 1.44294 -0.660674 0
M  V30 7593 H 720.517 3.71026 0.843813 0
M  V30 7594 H 720.029 3.75513 -0.980378 0
M  V30 7595 H 718.13 3.42659 1.4634 0
M  V30 7596 H 718.243 4.78829 0.16106 0
M  V30 7597 H 716.607 2.54047 0.182269 0
M  V30 7598 H 717.39 3.14521 -1.3759 0
M  V30 7599 N 719.835 0.176821 1.56605 0
M  V30 7600 C 720.745 -0.763682 2.21822 0
M  V30 7601 C 721.761 -1.24889 1.21156 0
M  V30 7602 O 722.937 -1.29987 1.53836 0
M  V30 7603 C 720.002 -1.97352 2.8505 0
M  V30 7604 C 719.063 -1.53466 4.00932 0
M  V30 7605 C 718.296 -2.68682 4.61135 0
M  V30 7606 O 718.519 -3.85694 4.20234 0
M  V30 7607 O 717.453 -2.42442 5.50913 0
M  V30 7608 H 721.279 -0.238363 3.02763 0
M  V30 7609 H 718.864 -0.0516331 1.49311 0
M  V30 7610 H 720.746 -2.68096 3.25119 0
M  V30 7611 H 719.421 -2.48779 2.07101 0
M  V30 7612 H 718.328 -0.796551 3.65521 0
M  V30 7613 H 719.661 -1.06724 4.8049 0
M  V30 7614 N 721.313 -1.57302 -0.09688 0
M  V30 7615 C 722.559 -1.87144 -0.796778 0
M  V30 7616 C 722.914 -0.767428 -1.76432 0
M  V30 7617 O 722.207 0.230728 -1.90206 0
M  V30 7618 C 722.401 -3.21272 -1.56586 0
M  V30 7619 C 722.23 -4.44616 -0.674295 0
M  V30 7620 C 721 -5.04281 -0.320705 0
M  V30 7621 C 723.198 -5.14297 0.0179445 0
M  V30 7622 N 721.18 -6.11162 0.579206 0
M  V30 7623 C 722.551 -6.15125 0.775992 0
M  V30 7624 C 724.606 -4.97815 0.0920521 0
M  V30 7625 C 723.309 -7.01251 1.60122 0
M  V30 7626 C 725.335 -5.84447 0.904175 0
M  V30 7627 C 724.697 -6.84794 1.65035 0
M  V30 7628 H 720.796 -0.734721 -0.267787 0
M  V30 7629 H 723.38 -1.94609 -0.0593955 0
M  V30 7630 H 721.551 -3.14862 -2.27413 0
M  V30 7631 H 723.283 -3.38846 -2.21281 0
M  V30 7632 H 720.038 -4.68866 -0.667961 0
M  V30 7633 H 720.462 -6.69247 1.02166 0
M  V30 7634 H 725.104 -4.20174 -0.470492 0
M  V30 7635 H 722.822 -7.78284 2.17484 0
M  V30 7636 H 726.408 -5.73755 0.964165 0
M  V30 7637 H 725.288 -7.50668 2.26864 0
M  V30 7638 N 722.791 0.367657 -1.53252 0
M  V30 7639 C 723.754 1.43308 -1.78873 0
M  V30 7640 C 724.754 1.46671 -0.659115 0
M  V30 7641 O 725.944 1.47468 -0.927306 0
M  V30 7642 C 723.076 2.82442 -1.90892 0
M  V30 7643 H 724.269 1.21864 -2.74024 0
M  V30 7644 H 721.822 0.600668 -1.44297 0
M  V30 7645 H 722.557 3.09202 -0.978 0
M  V30 7646 H 722.342 2.81399 -2.73051 0
M  V30 7647 H 723.832 3.59601 -2.12314 0
M  V30 7648 N 724.269 1.44576 0.627338 0
M  V30 7649 C 725.199 1.54562 1.75022 0
M  V30 7650 C 726.18 0.398378 1.65369 0
M  V30 7651 O 727.365 0.61899 1.84071 0
M  V30 7652 C 724.495 1.49309 3.13567 0
M  V30 7653 C 723.449 2.62549 3.38012 0
M  V30 7654 C 722.775 2.42348 4.76625 0
M  V30 7655 C 724.075 4.04678 3.30202 0
M  V30 7656 H 725.769 2.4855 1.66922 0
M  V30 7657 H 723.315 1.19624 0.801636 0
M  V30 7658 H 725.268 1.54895 3.919 0
M  V30 7659 H 723.992 0.518392 3.2246 0
M  V30 7660 H 722.651 2.56358 2.62061 0
M  V30 7661 H 722.299 1.43062 4.82226 0
M  V30 7662 H 721.999 3.18273 4.93939 0
M  V30 7663 H 723.523 2.49758 5.57183 0
M  V30 7664 H 724.937 4.12217 3.98435 0
M  V30 7665 H 723.334 4.80836 3.5905 0
M  V30 7666 H 724.404 4.2798 2.27949 0
M  V30 7667 N 725.747 -0.868086 1.31537 0
M  V30 7668 C 727.024 -1.60384 1.11965 0
M  V30 7669 C 727.404 -2.08584 -0.324949 0
M  V30 7670 O 726.752 -1.86561 -1.31937 0
M  V30 7671 C 726.962 -2.76038 2.13551 0
M  V30 7672 C 728.31 -3.45954 2.46173 0
M  V30 7673 O 729.334 -2.86247 2.11993 0
M  V30 7674 O 728.193 -4.53666 3.04711 0
M  V30 7675 H 725.287 -0.705705 0.431172 0
M  V30 7676 H 727.833 -0.913385 1.43022 0
M  V30 7677 H 726.605 -2.37849 3.10714 0
M  V30 7678 H 726.228 -3.52769 1.83411 0
M  V30 7679 N 727.225 -1.14528 -1.08264 0
M  V30 7680 C 728.641 -0.885976 -1.3275 0
M  V30 7681 C 728.841 0.472096 -1.95892 0
M  V30 7682 O 727.897 1.21606 -2.21288 0
M  V30 7683 C 729.21 -2.01982 -2.22764 0
M  V30 7684 C 730.758 -2.05329 -2.36239 0
M  V30 7685 C 731.233 -3.1801 -3.29596 0
M  V30 7686 N 732.724 -3.17598 -3.37173 0
M  V30 7687 C 733.459 -4.01426 -4.09444 0
M  V30 7688 N 732.955 -4.95297 -4.8441 0
M  V30 7689 N 734.748 -3.89482 -4.0529 0
M  V30 7690 H 726.899 -2.01996 -0.656607 0
M  V30 7691 H 729.162 -0.880274 -0.351884 0
M  V30 7692 H 728.868 -2.99964 -1.83615 0
M  V30 7693 H 728.742 -1.94421 -3.23234 0
M  V30 7694 H 731.129 -1.07953 -2.74646 0
M  V30 7695 H 731.21 -2.1696 -1.35506 0
M  V30 7696 H 730.854 -4.15633 -2.9191 0
M  V30 7697 H 730.784 -3.03616 -4.30261 0
M  V30 7698 H 733.275 -2.4961 -2.83731 0
M  V30 7699 H 733.588 -5.55723 -5.37021 0
M  V30 7700 H 731.933 -4.99293 -4.83457 0
M  V30 7701 H 735.124 -3.15465 -3.45832 0
M  V30 7702 H 735.297 -4.55039 -4.6135 0
M  V30 7703 N 728.703 1.26451 -0.940633 0
M  V30 7704 C 729.666 2.24651 -0.454378 0
M  V30 7705 C 730.666 1.54826 0.434222 0
M  V30 7706 O 731.856 1.72628 0.233477 0
M  V30 7707 C 728.988 3.39148 0.345192 0
M  V30 7708 H 730.181 2.69182 -1.32217 0
M  V30 7709 H 727.734 1.38596 -0.722547 0
M  V30 7710 H 728.469 3.00018 1.23125 0
M  V30 7711 H 728.254 3.9101 -0.292107 0
M  V30 7712 H 729.744 4.12103 0.675341 0
M  V30 7713 N 730.181 0.707592 1.40822 0
M  V30 7714 C 731.411 0.252706 2.05049 0
M  V30 7715 C 731.819 -1.10758 1.53393 0
M  V30 7716 O 731.162 -1.70567 0.682097 0
M  V30 7717 C 731.224 0.146001 3.59203 0
M  V30 7718 C 730.888 1.44027 4.33711 0
M  V30 7719 C 731.885 2.38058 4.62195 0
M  V30 7720 C 729.57 1.69698 4.72766 0
M  V30 7721 C 731.564 3.56013 5.28709 0
M  V30 7722 C 729.251 2.87936 5.39014 0
M  V30 7723 C 730.249 3.80915 5.66915 0
M  V30 7724 O 729.937 4.9708 6.31796 0
M  V30 7725 H 729.669 0.112784 0.666525 0
M  V30 7726 H 732.223 0.96417 1.81364 0
M  V30 7727 H 730.453 -0.621338 3.81676 0
M  V30 7728 H 732.142 -0.273275 4.04979 0
M  V30 7729 H 732.908 2.19487 4.32493 0
M  V30 7730 H 728.787 0.981835 4.50423 0
M  V30 7731 H 732.331 4.28604 5.50404 0
M  V30 7732 H 728.228 3.06419 5.68135 0
M  V30 7733 H 728.996 4.97053 6.50293 0
M  V30 7734 N 731.66 -1.50943 0.453197 0
M  V30 7735 C 733.076 -1.59245 0.106342 0
M  V30 7736 C 733.276 -1.46287 -1.38572 0
M  V30 7737 O 732.332 -1.31219 -2.15726 0
M  V30 7738 C 733.645 -2.93797 0.640595 0
M  V30 7739 C 735.193 -3.07148 0.602435 0
M  V30 7740 C 735.668 -4.44247 1.11393 0
M  V30 7741 N 737.159 -4.50611 1.07258 0
M  V30 7742 C 737.894 -5.55049 1.43905 0
M  V30 7743 N 737.39 -6.66828 1.87914 0
M  V30 7744 N 739.183 -5.45494 1.35621 0
M  V30 7745 H 731.334 -1.5761 1.42382 0
M  V30 7746 H 733.597 -0.74384 0.587713 0
M  V30 7747 H 733.303 -3.087 1.68515 0
M  V30 7748 H 733.177 -3.77127 0.0742272 0
M  V30 7749 H 735.564 -2.91903 -0.433171 0
M  V30 7750 H 735.645 -2.25619 1.20539 0
M  V30 7751 H 735.289 -4.60239 2.14808 0
M  V30 7752 H 735.219 -5.2434 0.487353 0
M  V30 7753 H 737.71 -3.70391 0.749585 0
M  V30 7754 H 738.023 -7.42558 2.14072 0
M  V30 7755 H 736.368 -6.67995 1.91853 0
M  V30 7756 H 739.559 -4.57053 1.01093 0
M  V30 7757 H 739.732 -6.2677 1.64508 0
M  V30 7758 N 733.138 -0.185124 -1.56509 0
M  V30 7759 C 734.415 0.503348 -1.89013 0
M  V30 7760 C 734.795 1.80349 -1.09715 0
M  V30 7761 O 734.143 2.27665 -0.195203 0
M  V30 7762 C 734.353 0.731839 -3.41241 0
M  V30 7763 C 735.701 1.05568 -4.11267 0
M  V30 7764 O 736.725 0.819906 -3.46635 0
M  V30 7765 O 735.584 1.50116 -5.25478 0
M  V30 7766 H 732.678 0.261139 -0.784688 0
M  V30 7767 H 735.224 -0.224592 -1.68207 0
M  V30 7768 H 733.996 -0.18672 -3.90854 0
M  V30 7769 H 733.619 1.5126 -3.67704 0
M  V30 7770 N 734.616 1.57351 0.0885366 0
M  V30 7771 C 735.579 2.01557 1.09121 0
M  V30 7772 C 736.579 0.910052 1.3257 0
M  V30 7773 O 737.769 1.17537 1.28572 0
M  V30 7774 C 734.901 2.38189 2.43883 0
M  V30 7775 H 736.094 2.91361 0.710562 0
M  V30 7776 H 733.647 1.52694 0.333779 0
M  V30 7777 H 734.382 1.5136 2.86811 0
M  V30 7778 H 734.167 3.18846 2.28209 0
M  V30 7779 H 735.657 2.73025 3.15986 0
M  V30 7780 N 736.094 -0.359525 1.53444 0
M  V30 7781 C 737.51 -0.701599 1.43352 0
M  V30 7782 C 737.71 -1.93049 0.577439 0
M  V30 7783 O 736.766 -2.52423 0.0622224 0
M  V30 7784 C 738.079 -0.90915 2.86627 0
M  V30 7785 C 739.627 -1.00878 2.96298 0
M  V30 7786 C 740.102 -1.24876 4.40647 0
M  V30 7787 N 741.593 -1.31632 4.44103 0
M  V30 7788 C 742.328 -1.51922 5.52908 0
M  V30 7789 N 741.824 -1.69489 6.71748 0
M  V30 7790 N 743.617 -1.54341 5.40496 0
M  V30 7791 H 735.768 0.448685 2.07607 0
M  V30 7792 H 738.031 0.138713 0.937797 0
M  V30 7793 H 737.737 -0.0778997 3.51614 0
M  V30 7794 H 737.611 -1.81551 3.30634 0
M  V30 7795 H 739.998 -1.83057 2.31461 0
M  V30 7796 H 740.079 -0.0796721 2.55676 0
M  V30 7797 H 739.723 -0.431961 5.0606 0
M  V30 7798 H 739.653 -2.19118 4.78848 0
M  V30 7799 H 742.144 -1.19646 3.5846 0
M  V30 7800 H 742.457 -1.84561 7.50438 0
M  V30 7801 H 740.802 -1.66655 6.74723 0
M  V30 7802 H 743.993 -1.40188 4.46615 0
M  V30 7803 H 744.166 -1.69812 6.25354 0
M  V30 7804 N 737.572 -1.44907 -0.619662 0
M  V30 7805 C 738.818 -1.48512 -1.38102 0
M  V30 7806 C 739.151 -0.121686 -1.93818 0
M  V30 7807 O 738.426 0.862256 -1.74343 0
M  V30 7808 C 738.709 -2.55469 -2.53787 0
M  V30 7809 C 738.562 -4.01212 -2.03345 0
M  V30 7810 C 739.881 -2.58821 -3.55949 0
M  V30 7811 H 737 -0.540712 -0.500799 0
M  V30 7812 H 739.642 -1.7665 -0.69962 0
M  V30 7813 H 737.792 -2.31606 -3.11915 0
M  V30 7814 H 739.464 -4.36245 -1.49959 0
M  V30 7815 H 737.707 -4.12443 -1.34438 0
M  V30 7816 H 738.378 -4.71717 -2.86683 0
M  V30 7817 H 740.854 -2.80172 -3.07641 0
M  V30 7818 H 739.73 -3.35542 -4.34399 0
M  V30 7819 H 739.991 -1.63451 -4.10775 0
M  V30 7820 N 739.05 0.861098 -1.31996 0
M  V30 7821 C 739.96 2.00154 -1.22374 0
M  V30 7822 C 740.976 1.73447 -0.138631 0
M  V30 7823 O 742.152 1.98191 -0.358104 0
M  V30 7824 C 739.217 3.33696 -0.940645 0
M  V30 7825 C 738.278 3.73668 -2.11355 0
M  V30 7826 C 737.511 5.00837 -1.84386 0
M  V30 7827 O 737.734 5.64996 -0.783287 0
M  V30 7828 O 736.668 5.37787 -2.70313 0
M  V30 7829 H 740.494 2.11207 -2.18233 0
M  V30 7830 H 738.079 0.990768 -1.11822 0
M  V30 7831 H 739.961 4.13756 -0.798987 0
M  V30 7832 H 738.636 3.23698 -0.0121636 0
M  V30 7833 H 737.543 2.94211 -2.31065 0
M  V30 7834 H 738.876 3.88303 -3.02459 0
M  V30 7835 N 740.528 1.15101 1.07655 0
M  V30 7836 C 741.458 0.867864 2.16773 0
M  V30 7837 C 742.439 -0.180283 1.69142 0
M  V30 7838 O 743.624 -0.0353152 1.94168 0
M  V30 7839 C 740.754 0.35299 3.45501 0
M  V30 7840 C 739.708 1.33746 4.06566 0
M  V30 7841 C 739.034 0.681562 5.30338 0
M  V30 7842 C 740.334 2.7024 4.46954 0
M  V30 7843 H 742.028 1.78034 2.40716 0
M  V30 7844 H 739.574 0.857435 1.15689 0
M  V30 7845 H 741.527 0.142465 4.21159 0
M  V30 7846 H 740.251 -0.594945 3.21135 0
M  V30 7847 H 738.91 1.53429 3.32949 0
M  V30 7848 H 738.558 -0.272422 5.02262 0
M  V30 7849 H 738.258 1.33853 5.72151 0
M  V30 7850 H 739.782 0.48074 6.08705 0
M  V30 7851 H 741.196 2.5442 5.13754 0
M  V30 7852 H 739.593 3.32282 4.99709 0
M  V30 7853 H 740.663 3.26537 3.58471 0
M  V30 7854 O 742.045 -1.2028 1.07773 0
M  V30 7855 H 742.736 -1.77907 0.76608 0
M  V30 END ATOM
M  V30 BEGIN BOND
M  V30 END BOND
M  V30 END CTAB
M  END
$$$$
