drugbank_target|P0A915 Outer membrane protein W (DB04147; DB04233)
 OpenBabel12092120443D

  0  0  0     0  0            999 V3000
M  V30 BEGIN CTAB
M  V30 COUNTS 3175 3218 0 0 0
M  V30 BEGIN ATOM
M  V30 1 H -0.908 1.98254 -0.117106 0
M  V30 2 N 0 1.576 0 0
M  V30 3 C 0.933 2.03868 1.02534 0
M  V30 4 C 1.911 0.928543 1.3348 0
M  V30 5 O 3.095 1.19667 1.45644 0
M  V30 6 C 0.222 2.43627 2.35294 0
M  V30 7 C -0.732 3.65373 2.2001 0
M  V30 8 S 0.101 5.13292 1.52614 0
M  V30 9 C 1.257 5.56322 2.86805 0
M  V30 10 H 1.49 2.90518 0.631377 0
M  V30 11 H -0.977 1.52953 0.210867 0
M  V30 12 H 0.981 2.67203 3.11629 0
M  V30 13 H -0.358 1.57376 2.7183 0
M  V30 14 H -1.165 3.90944 3.18086 0
M  V30 15 H -1.563 3.418 1.51819 0
M  V30 16 H 0.729 5.58782 3.83104 0
M  V30 17 H 1.672 6.56266 2.65933 0
M  V30 18 H 2.08 4.83886 2.90714 0
M  V30 19 N 1.4781 -0.272755 1.55222 0
M  V30 20 C 2.4251 -1.33716 1.88119 0
M  V30 21 C 3.3951 -1.49066 0.73271 0
M  V30 22 O 4.5801 -1.63469 0.984002 0
M  V30 23 C 1.7201 -2.69238 2.15882 0
M  V30 24 C 0.8331 -2.62108 3.43399 0
M  V30 25 C -0.0319 -3.89811 3.60861 0
M  V30 26 C -0.9929 -3.77193 4.8207 0
M  V30 27 N -1.8559 -4.9673 4.96189 0
M  V30 28 H 2.9841 -1.04962 2.78903 0
M  V30 29 H 0.5211 -0.507088 1.38083 0
M  V30 30 H 2.4791 -3.48089 2.29978 0
M  V30 31 H 1.1091 -2.96194 1.28331 0
M  V30 32 H 0.1611 -1.74967 3.37773 0
M  V30 33 H 1.4731 -2.48685 4.32386 0
M  V30 34 H 0.6271 -4.77103 3.74777 0
M  V30 35 H -0.6339 -4.06102 2.7006 0
M  V30 36 H -1.6289 -2.88284 4.68159 0
M  V30 37 H -0.4039 -3.62421 5.74307 0
M  V30 38 H -2.4579 -5.13431 4.08319 0
M  V30 39 H -2.5409 -4.85839 5.79221 0
M  V30 40 H -1.2729 -5.85594 5.1449 0
M  V30 41 N 2.9562 -1.48159 -0.537278 0
M  V30 42 C 3.9032 -1.62138 -1.64256 0
M  V30 43 C 4.8732 -0.463668 -1.59497 0
M  V30 44 O 6.0582 -0.686241 -1.78032 0
M  V30 45 C 3.1982 -1.66028 -3.02537 0
M  V30 46 C 2.3112 -2.92855 -3.17585 0
M  V30 47 C 1.4462 -2.87952 -4.46382 0
M  V30 48 C 0.4852 -4.09516 -4.54932 0
M  V30 49 N -0.3778 -4.02733 -5.75109 0
M  V30 50 H 4.4622 -2.56529 -1.51647 0
M  V30 51 H 1.9992 -1.27224 -0.738414 0
M  V30 52 H 3.9572 -1.66265 -3.82638 0
M  V30 53 H 2.5872 -0.751331 -3.13934 0
M  V30 54 H 1.6392 -3.02395 -2.30784 0
M  V30 55 H 2.9512 -3.82822 -3.19764 0
M  V30 56 H 2.1052 -2.8655 -5.34765 0
M  V30 57 H 0.8442 -1.95702 -4.46712 0
M  V30 58 H -0.1508 -4.11201 -3.64957 0
M  V30 59 H 1.0742 -5.02917 -4.56346 0
M  V30 60 H -0.9798 -3.13299 -5.76351 0
M  V30 61 H -1.0628 -4.86397 -5.78752 0
M  V30 62 H 0.2052 -4.05379 -6.65799 0
M  V30 63 N 4.4343 0.785586 -1.36625 0
M  V30 64 C 5.3643 1.91259 -1.33949 0
M  V30 65 C 6.3453 1.68795 -0.210325 0
M  V30 66 O 7.5303 1.89854 -0.408561 0
M  V30 67 C 4.6603 3.28339 -1.13186 0
M  V30 68 C 3.6143 3.65335 -2.22967 0
M  V30 69 C 2.9403 5.00806 -1.87342 0
M  V30 70 C 4.2403 3.7352 -3.65075 0
M  V30 71 H 5.9343 1.93755 -2.28253 0
M  V30 72 H 3.4803 0.930788 -1.09874 0
M  V30 73 H 5.4333 4.06804 -1.09948 0
M  V30 74 H 4.1573 3.2624 -0.153332 0
M  V30 75 H 2.8163 2.89169 -2.25337 0
M  V30 76 H 2.4643 4.95233 -0.880545 0
M  V30 77 H 2.1643 5.26529 -2.60846 0
M  V30 78 H 3.6883 5.81687 -1.85667 0
M  V30 79 H 5.1023 4.42168 -3.64911 0
M  V30 80 H 3.4993 4.10731 -4.37516 0
M  V30 81 H 4.5693 2.74527 -3.99703 0
M  V30 82 N 5.9124 1.20967 1.01018 0
M  V30 83 C 7.1404 1.04956 1.78303 0
M  V30 84 C 7.5554 -0.400915 1.84494 0
M  V30 85 O 6.9124 -1.27826 1.30257 0
M  V30 86 C 6.9634 1.63403 3.22462 0
M  V30 87 O 6.6844 3.02775 3.16637 0
M  V30 88 C 8.1854 1.52432 4.16268 0
M  V30 89 H 5.4054 0.368858 0.560522 0
M  V30 90 H 7.9494 1.60193 1.27116 0
M  V30 91 H 6.1044 1.1227 3.70775 0
M  V30 92 H 6.5184 3.30626 4.07169 0
M  V30 93 H 7.9924 1.98078 5.15237 0
M  V30 94 H 8.4694 0.477875 4.36592 0
M  V30 95 H 9.0754 2.02787 3.73841 0
M  V30 96 N 7.3905 -1.2043 1.01659 0
M  V30 97 C 8.6365 -1.90079 0.706963 0
M  V30 98 C 8.9695 -1.78648 -0.761474 0
M  V30 99 O 8.2445 -1.17069 -1.55323 0
M  V30 100 C 8.5275 -3.41469 1.14327 0
M  V30 101 C 8.3805 -3.61833 2.67201 0
M  V30 102 C 9.6995 -4.34261 0.714529 0
M  V30 103 H 6.8185 -0.690254 0.2583 0
M  V30 104 H 9.4605 -1.41826 1.26433 0
M  V30 105 H 7.6105 -3.82696 0.669056 0
M  V30 106 H 9.2825 -3.2986 3.22475 0
M  V30 107 H 7.5255 -3.05304 3.08175 0
M  V30 108 H 8.1965 -4.67955 2.92783 0
M  V30 109 H 10.6725 -4.00682 1.12221 0
M  V30 110 H 9.5485 -5.38806 1.04784 0
M  V30 111 H 9.8095 -4.40431 -0.383799 0
M  V30 112 N 8.8686 -0.792821 -1.36206 0
M  V30 113 C 9.8316 -0.199459 -2.2833 0
M  V30 114 C 10.8316 0.605189 -1.48977 0
M  V30 115 O 12.0216 0.425685 -1.68919 0
M  V30 116 C 9.1536 0.723523 -3.33134 0
M  V30 117 H 10.3466 -1.01181 -2.82316 0
M  V30 118 H 7.8996 -0.562485 -1.45828 0
M  V30 119 H 8.6346 1.56008 -2.84309 0
M  V30 120 H 8.4196 0.148436 -3.91819 0
M  V30 121 H 9.9096 1.13344 -4.01924 0
M  V30 122 N 10.3467 1.47872 -0.545128 0
M  V30 123 C 11.3097 2.28337 0.198717 0
M  V30 124 C 12.3097 1.36255 0.853888 0
M  V30 125 O 13.4997 1.59003 0.711606 0
M  V30 126 C 10.6317 3.15585 1.28915 0
M  V30 127 H 11.8247 2.95567 -0.507941 0
M  V30 128 H 9.3777 1.53362 -0.301616 0
M  V30 129 H 10.1127 2.53019 2.02859 0
M  V30 130 H 9.8977 3.83337 0.824309 0
M  V30 131 H 11.3877 3.76243 1.81194 0
M  V30 132 N 11.8248 0.280983 1.55075 0
M  V30 133 C 12.7548 -0.597469 2.25727 0
M  V30 134 C 13.7358 -1.15417 1.24952 0
M  V30 135 O 14.9208 -1.18722 1.53684 0
M  V30 136 C 12.0508 -1.7789 2.98283 0
M  V30 137 C 11.0048 -1.35347 4.06036 0
M  V30 138 C 10.3308 -2.61846 4.66198 0
M  V30 139 C 11.6308 -0.499354 5.19907 0
M  V30 140 H 13.3248 -0.00824265 2.99399 0
M  V30 141 H 10.8708 -0.0025244 1.44 0
M  V30 142 H 12.8238 -2.39937 3.46422 0
M  V30 143 H 11.5478 -2.39405 2.22155 0
M  V30 144 H 10.2068 -0.756156 3.58717 0
M  V30 145 H 9.8548 -3.21632 3.86732 0
M  V30 146 H 9.5548 -2.3409 5.38958 0
M  V30 147 H 11.0788 -3.24732 5.1709 0
M  V30 148 H 12.4928 -1.02498 5.64063 0
M  V30 149 H 10.8898 -0.316424 5.99265 0
M  V30 150 H 11.9598 0.480459 4.82514 0
M  V30 151 N 13.3029 -1.57598 0.00835791 0
M  V30 152 C 14.2659 -2.07884 -0.965242 0
M  V30 153 C 15.2659 -0.989825 -1.26725 0
M  V30 154 O 16.4559 -1.25218 -1.21104 0
M  V30 155 C 13.5879 -2.52731 -2.28779 0
M  V30 156 H 14.7809 -2.95178 -0.530112 0
M  V30 157 H 12.3339 -1.54458 -0.239283 0
M  V30 158 H 13.0689 -1.68705 -2.76964 0
M  V30 159 H 12.8539 -3.32272 -2.08177 0
M  V30 160 H 14.3439 -2.91933 -2.98605 0
M  V30 161 N 14.781 0.264519 -1.55364 0
M  V30 162 C 16.027 0.99646 -1.76631 0
M  V30 163 C 16.36 1.85632 -0.570478 0
M  V30 164 O 15.635 1.89647 0.43175 0
M  V30 165 C 15.918 1.87187 -3.07625 0
M  V30 166 C 15.771 1.04138 -4.37579 0
M  V30 167 C 17.09 2.85749 -3.34717 0
M  V30 168 H 14.209 0.360841 -0.642622 0
M  V30 169 H 16.851 0.268218 -1.88097 0
M  V30 170 H 15.001 2.49279 -2.9798 0
M  V30 171 H 16.673 0.440517 -4.59192 0
M  V30 172 H 14.916 0.345115 -4.32425 0
M  V30 173 H 15.587 1.68729 -5.2558 0
M  V30 174 H 18.063 2.33793 -3.4421 0
M  V30 175 H 16.939 3.44136 -4.27623 0
M  V30 176 H 17.2 3.61311 -2.54768 0
M  V30 177 N 16.2591 1.48442 0.529413 0
M  V30 178 C 17.4871 1.60151 1.30994 0
M  V30 179 C 17.9021 0.261985 1.86973 0
M  V30 180 O 17.2591 -0.748805 1.66431 0
M  V30 181 C 17.3101 2.64854 2.46038 0
M  V30 182 O 17.0311 3.93608 1.92365 0
M  V30 183 C 18.5321 2.87007 3.37849 0
M  V30 184 H 15.7521 0.539971 0.398338 0
M  V30 185 H 18.2961 1.94273 0.638597 0
M  V30 186 H 16.4511 2.33589 3.09055 0
M  V30 187 H 16.8651 4.51055 2.67675 0
M  V30 188 H 18.3391 3.64068 4.14919 0
M  V30 189 H 18.8161 1.95852 3.93114 0
M  V30 190 H 19.4221 3.19579 2.80623 0
M  V30 191 N 17.7372 -0.778329 1.37039 0
M  V30 192 C 18.9652 -1.56734 1.35063 0
M  V30 193 C 19.3802 -1.88686 -0.0655597 0
M  V30 194 O 18.7372 -1.5096 -1.02554 0
M  V30 195 C 18.7882 -2.88163 2.18276 0
M  V30 196 O 18.5092 -2.57583 3.54376 0
M  V30 197 C 20.0102 -3.82422 2.24206 0
M  V30 198 H 17.2302 -0.485778 0.462883 0
M  V30 199 H 19.7742 -0.965185 1.8029 0
M  V30 200 H 17.9292 -3.44818 1.76576 0
M  V30 201 H 18.3432 -3.41699 3.97922 0
M  V30 202 H 19.8172 -4.71667 2.86765 0
M  V30 203 H 20.2942 -4.21078 1.24861 0
M  V30 204 H 20.9002 -3.31697 2.6619 0
M  V30 205 N 19.2153 -1.21501 -1.00376 0
M  V30 206 C 20.1453 -0.999478 -2.11028 0
M  V30 207 C 21.1263 0.0759671 -1.6993 0
M  V30 208 O 22.3113 -0.0841106 -1.94018 0
M  V30 209 C 19.4413 -0.564709 -3.42678 0
M  V30 210 C 18.3953 -1.58486 -3.97576 0
M  V30 211 C 17.7213 -1.00628 -5.25146 0
M  V30 212 C 19.0213 -2.97204 -4.29496 0
M  V30 213 H 20.7153 -1.92495 -2.29317 0
M  V30 214 H 18.2613 -0.92693 -1.102 0
M  V30 215 H 20.2143 -0.401091 -4.19487 0
M  V30 216 H 18.9383 0.396411 -3.24185 0
M  V30 217 H 17.5973 -1.73606 -3.22888 0
M  V30 218 H 17.2453 -0.0368439 -5.02987 0
M  V30 219 H 16.9453 -1.68771 -5.62841 0
M  V30 220 H 18.4693 -0.854015 -6.04598 0
M  V30 221 H 19.8833 -2.8552 -4.97143 0
M  V30 222 H 18.2803 -3.62372 -4.78338 0
M  V30 223 H 19.3503 -3.47956 -3.3772 0
M  V30 224 N 20.6934 1.19889 -1.02296 0
M  V30 225 C 21.6234 2.25141 -0.619174 0
M  V30 226 C 22.6044 1.66051 0.368915 0
M  V30 227 O 23.7894 1.92546 0.252941 0
M  V30 228 C 20.9194 3.4728 0.0368783 0
M  V30 229 C 19.8734 4.19005 -0.872865 0
M  V30 230 C 19.1994 5.34637 -0.0822402 0
M  V30 231 C 20.4994 4.74452 -2.18387 0
M  V30 232 H 22.1934 2.59171 -1.49903 0
M  V30 233 H 19.7394 1.24579 -0.722222 0
M  V30 234 H 21.6924 4.20098 0.330958 0
M  V30 235 H 20.4164 3.12433 0.95149 0
M  V30 236 H 19.0754 3.48061 -1.15105 0
M  V30 237 H 18.7234 4.96034 0.83422 0
M  V30 238 H 18.4234 5.83557 -0.688149 0
M  V30 239 H 19.9474 6.10255 0.205238 0
M  V30 240 H 21.3614 5.39055 -1.95172 0
M  V30 241 H 19.7584 5.33834 -2.74119 0
M  V30 242 H 20.8284 3.92844 -2.84257 0
M  V30 243 N 22.1715 0.800033 1.35784 0
M  V30 244 C 23.3965 0.388511 2.03729 0
M  V30 245 C 23.8215 -0.990481 1.5991 0
M  V30 246 O 23.1795 -1.64013 0.772612 0
M  V30 247 C 23.2275 0.4726 3.5749 0
M  V30 248 O 22.3315 -0.51646 4.09153 0
M  V30 249 H 21.6725 0.163271 0.643614 0
M  V30 250 H 24.2025 1.0841 1.73518 0
M  V30 251 H 24.2125 0.34003 4.06581 0
M  V30 252 H 22.8875 1.47848 3.88734 0
M  V30 253 H 21.4645 -0.344673 3.71304 0
M  V30 254 N 23.6496 -1.47581 0.552962 0
M  V30 255 C 24.8976 -2.02082 0.0272703 0
M  V30 256 C 25.2186 -1.4301 -1.32563 0
M  V30 257 O 24.4886 -0.603745 -1.86365 0
M  V30 258 H 23.0686 -0.746966 0.00709182 0
M  V30 259 H 25.7306 -1.81033 0.722008 0
M  V30 260 H 24.8266 -3.12034 -0.0639951 0
M  V30 261 N 25.1277 -0.289203 -1.54924 0
M  V30 262 C 26.3527 0.329299 -2.04769 0
M  V30 263 C 26.7777 1.4763 -1.16564 0
M  V30 264 O 26.1357 1.80527 -0.167186 0
M  V30 265 C 26.1837 0.774438 -3.52186 0
M  V30 266 O 25.2877 1.88038 -3.67036 0
M  V30 267 H 24.6287 0.0659259 -0.660719 0
M  V30 268 H 27.1587 -0.42761 -2.00082 0
M  V30 269 H 27.1687 1.06642 -3.93816 0
M  V30 270 H 25.8437 -0.0646707 -4.1585 0
M  V30 271 H 24.4207 1.58985 -3.3731 0
M  V30 272 N 26.6058 1.57591 -0.0167156 0
M  V30 273 C 27.5688 2.08393 0.954204 0
M  V30 274 C 28.5688 0.996531 1.26198 0
M  V30 275 O 29.7588 1.25858 1.20438 0
M  V30 276 C 26.8908 2.5394 2.27436 0
M  V30 277 H 28.0838 2.95455 0.514451 0
M  V30 278 H 25.6368 1.54582 0.231089 0
M  V30 279 H 26.3718 1.70171 2.76066 0
M  V30 280 H 26.1568 3.33371 2.06412 0
M  V30 281 H 27.6468 2.93512 2.97053 0
M  V30 282 N 28.0839 -0.256276 1.55502 0
M  V30 283 C 29.3309 -0.985619 1.76895 0
M  V30 284 C 29.6589 -1.85671 0.579355 0
M  V30 285 O 28.9139 -1.90744 -0.437651 0
M  V30 286 C 29.2129 -1.88432 3.03691 0
M  V30 287 C 28.8789 -1.16936 4.35473 0
M  V30 288 C 27.5409 -0.97173 4.71286 0
M  V30 289 C 29.8929 -0.661889 5.1698 0
M  V30 290 C 27.2209 -0.254179 5.86149 0
M  V30 291 C 29.5729 0.042149 6.32586 0
M  V30 292 C 28.2369 0.25134 6.67027 0
M  V30 293 H 27.5069 -0.360663 0.647304 0
M  V30 294 H 30.1539 -0.256483 1.89775 0
M  V30 295 H 28.4589 -2.68021 2.85783 0
M  V30 296 H 30.1559 -2.45015 3.1744 0
M  V30 297 H 26.7459 -1.33332 4.07333 0
M  V30 298 H 30.9299 -0.802145 4.89775 0
M  V30 299 H 26.1859 -0.0815408 6.11346 0
M  V30 300 H 30.3599 0.443049 6.94989 0
M  V30 301 H 27.9869 0.809314 7.5588 0
M  V30 302 N 29.562 -1.4872 -0.521534 0
M  V30 303 C 30.525 -1.63379 -1.60748 0
M  V30 304 C 31.525 -0.50661 -1.52611 0
M  V30 305 O 32.715 -0.772601 -1.5613 0
M  V30 306 C 29.847 -1.61192 -3.00383 0
M  V30 307 H 31.04 -2.60217 -1.49087 0
M  V30 308 H 28.593 -1.37444 -0.744235 0
M  V30 309 H 29.328 -0.65863 -3.17541 0
M  V30 310 H 29.113 -2.43032 -3.07698 0
M  V30 311 H 30.603 -1.7466 -3.7932 0
M  V30 312 N 31.0401 0.771051 -1.3745 0
M  V30 313 C 31.9901 1.87456 -1.29785 0
M  V30 314 C 32.9741 1.59827 -0.185541 0
M  V30 315 O 34.1661 1.71945 -0.419997 0
M  V30 316 C 31.2951 3.24935 -1.1078 0
M  V30 317 C 30.3811 3.58514 -2.26558 0
M  V30 318 N 30.7721 3.6327 -3.5195 0
M  V30 319 C 29.0701 3.88683 -2.18727 0
M  V30 320 C 29.7711 3.93616 -4.283 0
M  V30 321 N 28.7471 4.09551 -3.57448 0
M  V30 322 H 32.5491 1.89386 -2.24745 0
M  V30 323 H 30.0631 0.967531 -1.30432 0
M  V30 324 H 32.0601 4.03881 -1.03374 0
M  V30 325 H 30.7201 3.24268 -0.16738 0
M  V30 326 H 31.7311 3.45458 -3.85848 0
M  V30 327 H 28.4081 3.95834 -1.32746 0
M  V30 328 H 29.7981 4.04066 -5.36824 0
M  V30 329 N 32.5182 1.22032 0.997298 0
M  V30 330 C 33.4282 1.00271 2.12092 0
M  V30 331 C 34.4442 -0.047621 1.73935 0
M  V30 332 O 35.6202 0.144136 2.00884 0
M  V30 333 C 32.6852 0.578449 3.4184 0
M  V30 334 C 31.7462 1.70189 3.94125 0
M  V30 335 C 30.9792 1.29778 5.17681 0
M  V30 336 O 31.2022 0.174676 5.70132 0
M  V30 337 O 30.1362 2.11261 5.63607 0
M  V30 338 H 33.9622 1.94398 2.3333 0
M  V30 339 H 31.5472 1.00587 1.10465 0
M  V30 340 H 33.4292 0.351998 4.19927 0
M  V30 341 H 32.1042 -0.334019 3.21972 0
M  V30 342 H 31.0112 1.98282 3.1723 0
M  V30 343 H 32.3442 2.59206 4.18417 0
M  V30 344 N 33.9963 -1.19345 1.0293 0
M  V30 345 C 34.9593 -2.20793 0.615069 0
M  V30 346 C 35.9593 -1.57553 -0.321533 0
M  V30 347 O 37.1493 -1.73862 -0.108483 0
M  V30 348 C 34.2813 -3.40754 -0.0999222 0
M  V30 349 H 35.4743 -2.58955 1.51269 0
M  V30 350 H 33.0273 -1.3303 0.820534 0
M  V30 351 H 33.7623 -3.0811 -1.01187 0
M  V30 352 H 33.5473 -3.87889 0.57309 0
M  V30 353 H 35.0373 -4.15898 -0.376645 0
M  V30 354 N 35.4744 -0.807222 -1.35358 0
M  V30 355 C 36.7224 -0.387122 -1.98358 0
M  V30 356 C 37.0434 1.04942 -1.64354 0
M  V30 357 O 36.3134 1.72615 -0.926339 0
M  V30 358 H 34.8934 -0.140154 -0.733734 0
M  V30 359 H 37.5554 -1.0332 -1.6526 0
M  V30 360 H 36.6514 -0.493352 -3.08176 0
M  V30 361 N 36.9525 1.47285 -0.560781 0
M  V30 362 C 37.8625 2.33846 0.187954 0
M  V30 363 C 38.8785 1.48412 0.908293 0
M  V30 364 O 40.0545 1.81332 0.876388 0
M  V30 365 C 37.1195 3.25178 1.2025 0
M  V30 366 C 36.1805 4.26504 0.489208 0
M  V30 367 C 35.4135 5.13472 1.45542 0
M  V30 368 O 35.6365 5.02959 2.6905 0
M  V30 369 O 34.5705 5.93902 0.977963 0
M  V30 370 H 38.3965 2.99177 -0.522177 0
M  V30 371 H 35.9815 1.45903 -0.321364 0
M  V30 372 H 37.8635 3.81584 1.78805 0
M  V30 373 H 36.5385 2.6247 1.89449 0
M  V30 374 H 35.4455 3.73847 -0.137627 0
M  V30 375 H 36.7785 4.91935 -0.161399 0
M  V30 376 N 38.4306 0.297415 1.54768 0
M  V30 377 C 39.6776 -0.312913 2.00068 0
M  V30 378 C 40.0056 -1.54171 1.18582 0
M  V30 379 O 39.2606 -1.94108 0.249133 0
M  V30 380 C 39.5596 -0.717561 3.50123 0
M  V30 381 C 39.2256 0.409095 4.4904 0
M  V30 382 C 37.8876 0.718399 4.75807 0
M  V30 383 C 40.2396 1.16717 5.07963 0
M  V30 384 C 37.5676 1.78896 5.5876 0
M  V30 385 C 39.9196 2.22762 5.92081 0
M  V30 386 C 38.5836 2.54303 6.1716 0
M  V30 387 H 37.8536 -0.114503 0.7321 0
M  V30 388 H 40.5006 0.415767 1.86932 0
M  V30 389 H 38.8056 -1.52627 3.60849 0
M  V30 390 H 40.5026 -1.20091 3.82595 0
M  V30 391 H 37.0926 0.157918 4.28309 0
M  V30 392 H 41.2766 0.941466 4.87289 0
M  V30 393 H 36.5326 2.0381 5.7643 0
M  V30 394 H 40.7066 2.81962 6.36765 0
M  V30 395 H 38.3336 3.3739 6.81229 0
M  V30 396 N 39.9087 -1.5758 0.0250728 0
M  V30 397 C 41.1557 -1.91633 -0.654444 0
M  V30 398 C 41.4837 -0.901103 -1.72367 0
M  V30 399 O 40.7387 0.0905647 -1.9549 0
M  V30 400 C 41.0377 -3.32421 -1.31268 0
M  V30 401 C 40.7037 -4.49344 -0.374223 0
M  V30 402 C 39.3657 -4.8106 -0.115911 0
M  V30 403 C 41.7177 -5.20498 0.270432 0
M  V30 404 C 39.0457 -5.8129 0.79493 0
M  V30 405 C 41.3977 -6.21699 1.1693 0
M  V30 406 C 40.0617 -6.51859 1.43655 0
M  V30 407 H 39.3317 -0.701236 -0.239478 0
M  V30 408 H 41.9787 -1.91307 0.0859734 0
M  V30 409 H 40.2837 -3.28989 -2.12775 0
M  V30 410 H 41.9807 -3.56038 -1.84494 0
M  V30 411 H 38.5707 -4.24579 -0.58573 0
M  V30 412 H 42.7547 -4.96229 0.0839194 0
M  V30 413 H 38.0107 -6.03005 1.00973 0
M  V30 414 H 42.1847 -6.75955 1.67504 0
M  V30 415 H 39.8117 -7.2934 2.144 0
M  V30 416 N 41.3868 0.248026 -1.55636 0
M  V30 417 C 42.3198 1.3334 -1.85191 0
M  V30 418 C 43.2978 1.46429 -0.706906 0
M  V30 419 O 44.4818 1.62662 -0.952544 0
M  V30 420 C 41.6088 2.70703 -2.03562 0
M  V30 421 C 40.6548 2.7477 -3.26196 0
M  V30 422 S 41.4878 2.31493 -4.82878 0
M  V30 423 C 42.6438 3.70783 -5.04253 0
M  V30 424 H 42.8768 1.08072 -2.76962 0
M  V30 425 H 40.4098 0.448952 -1.47729 0
M  V30 426 H 42.3678 3.49798 -2.1483 0
M  V30 427 H 41.0288 2.9321 -1.12635 0
M  V30 428 H 40.2218 3.75648 -3.36013 0
M  V30 429 H 39.8238 2.03719 -3.13647 0
M  V30 430 H 42.1158 4.6627 -4.91527 0
M  V30 431 H 43.0588 3.65901 -6.06236 0
M  V30 432 H 43.4668 3.63244 -4.32105 0
M  V30 433 N 42.8649 1.48995 0.513639 0
M  V30 434 C 44.2809 1.35478 0.843682 0
M  V30 435 C 44.4809 0.378213 1.97919 0
M  V30 436 O 43.5369 -0.194689 2.51748 0
M  V30 437 C 44.8499 2.75901 1.1958 0
M  V30 438 C 46.3979 2.84509 1.30474 0
M  V30 439 C 46.8729 4.25671 1.69021 0
M  V30 440 N 48.3639 4.28422 1.76094 0
M  V30 441 C 49.0989 5.34601 2.07338 0
M  V30 442 N 48.5949 6.5104 2.36894 0
M  V30 443 N 50.3879 5.22007 2.08483 0
M  V30 444 H 42.5389 2.11092 -0.235328 0
M  V30 445 H 44.8019 0.947039 -0.0426669 0
M  V30 446 H 44.5079 3.49001 0.434913 0
M  V30 447 H 44.3819 3.10467 2.1422 0
M  V30 448 H 46.7689 2.11655 2.05637 0
M  V30 449 H 46.8499 2.53542 0.339155 0
M  V30 450 H 46.4939 4.99048 0.944135 0
M  V30 451 H 46.4239 4.54094 2.66658 0
M  V30 452 H 48.9149 3.44441 1.55464 0
M  V30 453 H 49.2279 7.2779 2.59887 0
M  V30 454 H 47.5729 6.54287 2.34378 0
M  V30 455 H 50.7639 4.30051 1.84861 0
M  V30 456 H 50.9369 6.04854 2.325 0
M  V30 457 N 44.343 -0.763751 1.37857 0
M  V30 458 C 45.306 -1.85889 1.34081 0
M  V30 459 C 46.306 -1.58949 0.243277 0
M  V30 460 O 47.496 -1.66882 0.499589 0
M  V30 461 C 44.628 -3.23176 1.08489 0
M  V30 462 H 45.821 -1.90648 2.31502 0
M  V30 463 H 43.374 -0.964367 1.23003 0
M  V30 464 H 44.109 -3.24091 0.116318 0
M  V30 465 H 43.894 -3.44124 1.8794 0
M  V30 466 H 45.384 -4.03254 1.08517 0
M  V30 467 N 45.8211 -1.22559 -0.990812 0
M  V30 468 C 47.0691 -1.04933 -1.72724 0
M  V30 469 C 47.3901 0.416158 -1.90508 0
M  V30 470 O 46.6601 1.29918 -1.46622 0
M  V30 471 H 45.2401 -0.385296 -0.639965 0
M  V30 472 H 47.9021 -1.54105 -1.19322 0
M  V30 473 H 46.9981 -1.52886 -2.72089 0
M  V30 474 N 47.2992 1.18797 -1.03562 0
M  V30 475 C 48.5242 1.9314 -0.755764 0
M  V30 476 C 48.9492 1.7537 0.68022 0
M  V30 477 O 48.3072 1.06046 1.47051 0
M  V30 478 C 48.3552 3.42747 -1.12058 0
M  V30 479 O 47.4592 4.11683 -0.243124 0
M  V30 480 H 46.8002 0.602724 -0.278604 0
M  V30 481 H 49.3302 1.50678 -1.3841 0
M  V30 482 H 49.3402 3.93437 -1.08035 0
M  V30 483 H 48.0152 3.55002 -2.16672 0
M  V30 484 H 46.5922 3.71323 -0.342539 0
M  V30 485 N 48.7773 0.814389 1.34928 0
M  V30 486 C 49.7403 0.235759 2.27984 0
M  V30 487 C 50.7403 -0.581412 1.49921 0
M  V30 488 O 51.9303 -0.398758 1.69575 0
M  V30 489 C 49.0623 -0.670433 3.34242 0
M  V30 490 H 50.2553 1.05659 2.80671 0
M  V30 491 H 47.8083 0.585614 1.44915 0
M  V30 492 H 48.5433 -1.51466 2.86755 0
M  V30 493 H 48.3283 -0.0860822 3.92005 0
M  V30 494 H 49.8183 -1.06935 4.03676 0
M  V30 495 N 50.2554 -1.46986 0.568584 0
M  V30 496 C 51.4834 -2.0683 0.0539956 0
M  V30 497 C 51.8984 -1.41953 -1.24478 0
M  V30 498 O 51.2554 -0.519933 -1.74937 0
M  V30 499 C 51.3064 -3.61254 -0.133362 0
M  V30 500 O 51.0274 -4.237 1.11399 0
M  V30 501 C 52.5284 -4.37992 -0.683927 0
M  V30 502 H 49.7484 -0.669058 0.0510141 0
M  V30 503 H 52.2924 -1.88824 0.785234 0
M  V30 504 H 50.4474 -3.78735 -0.81477 0
M  V30 505 H 50.8614 -5.16388 0.91888 0
M  V30 506 H 52.3354 -5.46684 -0.764263 0
M  V30 507 H 52.8124 -4.05058 -1.69778 0
M  V30 508 H 53.4184 -4.25283 -0.0378494 0
M  V30 509 N 51.7335 -0.305618 -1.54608 0
M  V30 510 C 52.9795 0.302746 -2.00528 0
M  V30 511 C 53.3125 1.53184 -1.19367 0
M  V30 512 O 52.5875 1.92598 -0.271321 0
M  V30 513 C 52.8705 0.654756 -3.54097 0
M  V30 514 C 52.7235 -0.583793 -4.45995 0
M  V30 515 C 54.0425 1.47947 -4.14487 0
M  V30 516 H 51.1615 0.108564 -0.72896 0
M  V30 517 H 53.8035 -0.418634 -1.85331 0
M  V30 518 H 51.9535 1.26935 -3.67178 0
M  V30 519 H 53.6255 -1.22224 -4.44814 0
M  V30 520 H 51.8685 -1.21615 -4.16404 0
M  V30 521 H 52.5395 -0.293287 -5.5122 0
M  V30 522 H 55.0155 0.96013 -4.04871 0
M  V30 523 H 53.8915 1.69454 -5.22088 0
M  V30 524 H 54.1525 2.47011 -3.66658 0
M  V30 525 N 53.2116 1.57565 -0.0334293 0
M  V30 526 C 54.6276 1.56297 0.322997 0
M  V30 527 C 54.8276 1.03945 1.7262 0
M  V30 528 O 53.8836 0.688109 2.42943 0
M  V30 529 C 55.1966 3.00232 0.167664 0
M  V30 530 C 56.7446 3.12078 0.240107 0
M  V30 531 C 57.2196 4.57859 0.113513 0
M  V30 532 N 58.7106 4.62887 0.170359 0
M  V30 533 C 59.4456 5.73319 0.0962517 0
M  V30 534 N 58.9416 6.92794 -0.0291881 0
M  V30 535 N 60.7346 5.61898 0.150551 0
M  V30 536 H 52.8856 1.89923 -0.950956 0
M  V30 537 H 55.1486 0.873824 -0.367608 0
M  V30 538 H 54.8546 3.42501 -0.799102 0
M  V30 539 H 54.7286 3.654 0.936083 0
M  V30 540 H 57.1156 2.69718 1.19733 0
M  V30 541 H 57.1966 2.49623 -0.558763 0
M  V30 542 H 56.8406 5.009 -0.840314 0
M  V30 543 H 56.7706 5.18299 0.931302 0
M  V30 544 H 59.2616 3.76954 0.26728 0
M  V30 545 H 59.5746 7.7276 -0.0789252 0
M  V30 546 H 57.9196 6.94971 -0.0640299 0
M  V30 547 H 61.1106 4.67448 0.246981 0
M  V30 548 H 61.2836 6.47938 0.0893365 0
M  V30 549 N 54.6897 -0.239769 1.55765 0
M  V30 550 C 56.1007 -0.808263 1.68297 0
M  V30 551 C 56.4517 -1.85736 0.632181 0
M  V30 552 O 55.5767 -2.15277 -0.220204 0
M  V30 553 C 56.1717 -1.47284 3.05111 0
M  V30 554 C 54.7307 -1.98895 3.19559 0
M  V30 555 C 53.8777 -0.842575 2.64189 0
M  V30 556 H 56.8287 -0.0154422 1.58692 0
M  V30 557 H 56.8497 -2.34111 2.99954 0
M  V30 558 H 56.3617 -0.709053 3.81568 0
M  V30 559 H 54.4627 -2.78132 2.47938 0
M  V30 560 H 54.5757 -2.18143 4.26556 0
M  V30 561 H 52.9397 -1.24501 2.22197 0
M  V30 562 H 53.7227 -0.0917552 3.43177 0
M  V30 563 N 56.1678 -1.49265 -0.50573 0
M  V30 564 C 57.3958 -1.62215 -1.28429 0
M  V30 565 C 57.8108 -0.291697 -1.86533 0
M  V30 566 O 57.1678 0.722233 -1.67601 0
M  V30 567 C 57.2188 -2.68735 -2.41793 0
M  V30 568 O 56.9398 -3.96619 -1.86078 0
M  V30 569 C 58.4408 -2.92346 -3.3324 0
M  V30 570 H 55.6608 -0.546239 -0.389697 0
M  V30 571 H 58.2048 -1.95265 -0.607609 0
M  V30 572 H 56.3598 -2.38476 -3.053 0
M  V30 573 H 56.7738 -4.55256 -2.60465 0
M  V30 574 H 58.2478 -3.70623 -4.09075 0
M  V30 575 H 58.7248 -2.02081 -3.89948 0
M  V30 576 H 59.3308 -3.24003 -2.75503 0
M  V30 577 N 57.6459 0.756429 -1.3826 0
M  V30 578 C 58.5559 1.9009 -1.37488 0
M  V30 579 C 59.5719 1.71855 -0.272366 0
M  V30 580 O 60.7479 1.94827 -0.510318 0
M  V30 581 C 57.8129 3.25421 -1.19592 0
M  V30 582 C 56.8739 3.56202 -2.39622 0
M  V30 583 C 56.1069 4.85075 -2.2257 0
M  V30 584 O 56.3299 5.57246 -1.21793 0
M  V30 585 O 55.2639 5.15269 -3.11098 0
M  V30 586 H 59.0899 1.93695 -2.33914 0
M  V30 587 H 56.6749 0.901313 -1.1915 0
M  V30 588 H 58.5569 4.06337 -1.11661 0
M  V30 589 H 57.2319 3.22634 -0.262486 0
M  V30 590 H 56.1389 2.75458 -2.53128 0
M  V30 591 H 57.4719 3.63747 -3.31586 0
M  V30 592 N 59.124 1.23083 0.984299 0
M  V30 593 C 60.372 1.05848 1.72165 0
M  V30 594 C 60.693 -0.406049 1.90726 0
M  V30 595 O 59.963 -1.29139 1.47309 0
M  V30 596 H 58.543 0.388685 0.637913 0
M  V30 597 H 61.205 1.54736 1.18503 0
M  V30 598 H 60.301 1.54327 2.71274 0
M  V30 599 N 60.6021 -1.18246 1.0419 0
M  V30 600 C 61.5651 -2.20128 0.638452 0
M  V30 601 C 62.5651 -1.57885 -0.304805 0
M  V30 602 O 63.7551 -1.73967 -0.0900369 0
M  V30 603 C 60.8871 -3.4084 -0.0637751 0
M  V30 604 H 62.0801 -2.57336 1.54007 0
M  V30 605 H 59.6331 -1.32152 0.834598 0
M  V30 606 H 60.3681 -3.09166 -0.979136 0
M  V30 607 H 60.1531 -3.8726 0.614198 0
M  V30 608 H 61.6431 -4.16274 -0.332512 0
M  V30 609 N 62.0802 -0.821533 -1.34494 0
M  V30 610 C 63.3282 -0.408139 -1.97936 0
M  V30 611 C 63.6492 1.03193 -1.65457 0
M  V30 612 O 62.9192 1.71622 -0.944595 0
M  V30 613 H 61.4992 -0.147928 -0.732206 0
M  V30 614 H 64.1612 -1.05067 -1.64155 0
M  V30 615 H 63.2572 -0.52601 -3.07635 0
M  V30 616 N 63.5583 1.46682 -0.576371 0
M  V30 617 C 64.8063 2.02013 -0.0594163 0
M  V30 618 C 65.1273 1.45101 1.30271 0
M  V30 619 O 64.3973 0.633317 1.8538 0
M  V30 620 H 62.9773 0.746759 -0.0189745 0
M  V30 621 H 65.6393 1.79862 -0.750717 0
M  V30 622 H 64.7353 3.12097 0.014345 0
M  V30 623 N 65.0364 0.313813 1.54444 0
M  V30 624 C 66.2644 -0.293918 2.04802 0
M  V30 625 C 66.6794 -1.46537 1.19047 0
M  V30 626 O 66.0364 -1.81182 0.218939 0
M  V30 627 C 66.0874 -0.737806 3.53891 0
M  V30 628 O 65.8084 0.387038 4.36387 0
M  V30 629 C 67.3094 -1.40936 4.203 0
M  V30 630 H 64.5294 -0.0620057 0.668129 0
M  V30 631 H 67.0734 0.457169 1.99324 0
M  V30 632 H 65.2284 -1.43889 3.59687 0
M  V30 633 H 65.6424 0.0391274 5.24485 0
M  V30 634 H 67.1164 -1.67099 5.26101 0
M  V30 635 H 67.5934 -2.35355 3.70816 0
M  V30 636 H 68.1994 -0.751117 4.18615 0
M  V30 637 N 66.5145 -1.57545 0.0417849 0
M  V30 638 C 67.4445 -2.14009 -0.933929 0
M  V30 639 C 68.4255 -1.05938 -1.33083 0
M  V30 640 O 69.6105 -1.33833 -1.40721 0
M  V30 641 C 66.7405 -2.67747 -2.21199 0
M  V30 642 C 65.6945 -3.80718 -1.95544 0
M  V30 643 C 65.0205 -4.20935 -3.29724 0
M  V30 644 C 66.3205 -5.06258 -1.28452 0
M  V30 645 H 68.0145 -2.95788 -0.463645 0
M  V30 646 H 65.5605 -1.42285 -0.221573 0
M  V30 647 H 67.5135 -3.05886 -2.89848 0
M  V30 648 H 66.2375 -1.83147 -2.70416 0
M  V30 649 H 64.8965 -3.43037 -1.2931 0
M  V30 650 H 64.5445 -3.33298 -3.76724 0
M  V30 651 H 64.2445 -4.9707 -3.13361 0
M  V30 652 H 65.7685 -4.61666 -3.9962 0
M  V30 653 H 67.1825 -5.41903 -1.8712 0
M  V30 654 H 65.5795 -5.87475 -1.22445 0
M  V30 655 H 66.6495 -4.84207 -0.259219 0
M  V30 656 N 67.9926 0.231505 -1.5589 0
M  V30 657 C 69.2406 0.955461 -1.78088 0
M  V30 658 C 69.5616 1.85262 -0.608533 0
M  V30 659 O 68.8316 1.92277 0.375035 0
M  V30 660 H 67.4116 0.355787 -0.656829 0
M  V30 661 H 70.0736 0.245751 -1.93344 0
M  V30 662 H 69.1696 1.56814 -2.69844 0
M  V30 663 N 69.4707 1.49531 0.497807 0
M  V30 664 C 70.6957 1.63159 1.28039 0
M  V30 665 C 71.1207 0.30418 1.85624 0
M  V30 666 O 70.4787 -0.728618 1.66015 0
M  V30 667 C 70.5267 2.70537 2.38416 0
M  V30 668 O 69.6307 2.29931 3.42353 0
M  V30 669 H 68.9717 0.546001 0.377861 0
M  V30 670 H 71.5017 1.9574 0.59558 0
M  V30 671 H 71.5117 2.92802 2.84132 0
M  V30 672 H 70.1867 3.6689 1.95869 0
M  V30 673 H 68.7637 2.18009 3.02533 0
M  V30 674 N 70.9488 -0.749086 1.3866 0
M  V30 675 C 71.8788 -1.8764 1.38973 0
M  V30 676 C 72.8598 -1.68178 0.255004 0
M  V30 677 O 74.0448 -1.88704 0.458754 0
M  V30 678 C 71.1748 -3.25222 1.21851 0
M  V30 679 C 70.1288 -3.59295 2.32575 0
M  V30 680 C 69.4548 -4.95663 2.00555 0
M  V30 681 C 70.7548 -3.63709 3.7485 0
M  V30 682 H 72.4488 -1.87635 2.3331 0
M  V30 683 H 69.9948 -0.901329 1.12303 0
M  V30 684 H 71.9478 -4.03746 1.20695 0
M  V30 685 H 70.6718 -3.25719 0.239775 0
M  V30 686 H 69.3308 -2.83093 2.32925 0
M  V30 687 H 68.9788 -4.92724 1.01154 0
M  V30 688 H 68.6788 -5.19429 2.74714 0
M  V30 689 H 70.2028 -5.7656 2.01024 0
M  V30 690 H 71.6168 -4.32338 3.76506 0
M  V30 691 H 70.0138 -3.98986 4.48252 0
M  V30 692 H 71.0838 -2.63834 4.06841 0
M  V30 693 N 72.4269 -1.23603 -0.977757 0
M  V30 694 C 73.6749 -1.06759 -1.71601 0
M  V30 695 C 73.9959 0.395929 -1.90938 0
M  V30 696 O 73.2659 1.28356 -1.47992 0
M  V30 697 H 71.8459 -0.392062 -0.635843 0
M  V30 698 H 74.5079 -1.55362 -1.1768 0
M  V30 699 H 73.6039 -1.55763 -2.70452 0
M  V30 700 N 73.905 1.17692 -1.04816 0
M  V30 701 C 75.153 1.87488 -0.754497 0
M  V30 702 C 75.474 1.81205 0.720407 0
M  V30 703 O 74.744 1.23544 1.52032 0
M  V30 704 H 73.324 0.694101 -0.276102 0
M  V30 705 H 75.986 1.42793 -1.32651 0
M  V30 706 H 75.082 2.93328 -1.06606 0
M  V30 707 N 75.3831 0.828654 1.34056 0
M  V30 708 C 76.6301 0.419458 1.98108 0
M  V30 709 C 76.9581 -1.01886 1.65679 0
M  V30 710 O 76.2131 -1.72539 0.923512 0
M  V30 711 C 76.5121 0.575226 3.52741 0
M  V30 712 C 76.1781 1.98012 4.05095 0
M  V30 713 C 74.8401 2.36442 4.19104 0
M  V30 714 C 77.1921 2.89824 4.33188 0
M  V30 715 C 74.5201 3.66009 4.58535 0
M  V30 716 C 76.8721 4.1886 4.74066 0
M  V30 717 C 75.5361 4.5726 4.86281 0
M  V30 718 H 74.8061 0.153491 0.724929 0
M  V30 719 H 77.4531 1.05371 1.59904 0
M  V30 720 H 75.7581 -0.142385 3.91541 0
M  V30 721 H 77.4551 0.239057 4.00287 0
M  V30 722 H 74.0451 1.67162 3.94658 0
M  V30 723 H 78.2291 2.61375 4.21897 0
M  V30 724 H 73.4851 3.95579 4.66184 0
M  V30 725 H 77.6591 4.90086 4.94761 0
M  V30 726 H 75.2861 5.57707 5.16592 0
M  V30 727 N 76.8612 -1.46375 0.584142 0
M  V30 728 C 78.0862 -2.07268 0.0740405 0
M  V30 729 C 78.5112 -1.42979 -1.22223 0
M  V30 730 O 77.8692 -0.514092 -1.73859 0
M  V30 731 C 77.9172 -3.60518 -0.0767769 0
M  V30 732 O 77.0212 -3.96533 -1.13292 0
M  V30 733 H 76.3622 -0.660961 0.0634524 0
M  V30 734 H 78.8922 -1.87991 0.807492 0
M  V30 735 H 78.9022 -4.07021 -0.282489 0
M  V30 736 H 77.5772 -4.06702 0.86986 0
M  V30 737 H 76.1542 -3.61738 -0.905553 0
M  V30 738 N 78.3393 -0.321999 -1.54275 0
M  V30 739 C 79.5853 0.281461 -2.00837 0
M  V30 740 C 79.9183 1.51909 -1.20985 0
M  V30 741 O 79.1933 1.923 -0.291733 0
M  V30 742 C 79.4763 0.617162 -3.54772 0
M  V30 743 C 79.3293 -0.631064 -4.45351 0
M  V30 744 C 80.6483 1.43542 -4.16033 0
M  V30 745 H 77.7673 0.100826 -0.730071 0
M  V30 746 H 80.4093 -0.438268 -1.84876 0
M  V30 747 H 78.5593 1.23034 -3.68504 0
M  V30 748 H 80.2313 -1.26934 -4.43492 0
M  V30 749 H 78.4743 -1.26025 -4.15091 0
M  V30 750 H 79.1453 -0.351735 -5.50878 0
M  V30 751 H 81.6213 0.917134 -4.05867 0
M  V30 752 H 80.4973 1.63907 -5.23856 0
M  V30 753 H 80.7583 2.43108 -3.69257 0
M  V30 754 N 79.8174 1.5752 -0.0501392 0
M  V30 755 C 81.0454 1.96963 0.633492 0
M  V30 756 C 81.4604 0.927631 1.6444 0
M  V30 757 O 80.8174 -0.0882665 1.82286 0
M  V30 758 C 80.8684 3.36487 1.32132 0
M  V30 759 O 80.5894 4.36693 0.350894 0
M  V30 760 C 82.0904 3.90682 2.09481 0
M  V30 761 H 79.3104 0.648244 0.173266 0
M  V30 762 H 81.8544 2.0417 -0.116134 0
M  V30 763 H 80.0094 3.30434 2.02218 0
M  V30 764 H 80.4234 5.17702 0.841735 0
M  V30 765 H 81.8974 4.90591 2.5303 0
M  V30 766 H 82.3744 3.26053 2.94255 0
M  V30 767 H 82.9804 4.00069 1.44307 0
M  V30 768 N 81.2955 -0.223234 1.56011 0
M  V30 769 C 82.2435 -1.29627 1.93131 0
M  V30 770 C 83.2375 -1.48608 0.813146 0
M  V30 771 O 84.4435 -1.49802 0.997966 0
M  V30 772 H 80.8185 -0.434563 0.613726 0
M  V30 773 H 82.7895 -0.955995 2.82672 0
M  V30 774 C 81.5385 -2.63983 2.26292 0
M  V30 775 H 80.8615 -2.50185 3.11846 0
M  V30 776 H 82.3015 -3.3788 2.56151 0
M  V30 777 C 80.7605 -3.18866 1.08747 0
M  V30 778 O 81.2905 -4.00192 0.347727 0
M  V30 779 N 79.4965 -2.77217 0.871743 0
M  V30 780 H 79.0435 -2.1119 1.47501 0
M  V30 781 H 79.0015 -3.1428 0.0869905 0
M  V30 782 N 82.7736 -1.49793 -0.48987 0
M  V30 783 C 83.7216 -1.67783 -1.61095 0
M  V30 784 C 84.7156 -0.543683 -1.60438 0
M  V30 785 O 85.9216 -0.723647 -1.64813 0
M  V30 786 H 82.2966 -0.529255 -0.534222 0
M  V30 787 H 84.2676 -2.61861 -1.43078 0
M  V30 788 C 83.0166 -1.77191 -2.99164 0
M  V30 789 H 82.3396 -2.63841 -3.0038 0
M  V30 790 H 83.7796 -1.93809 -3.77113 0
M  V30 791 C 82.2386 -0.519203 -3.32875 0
M  V30 792 O 82.7686 0.350124 -4.00171 0
M  V30 793 N 80.9746 -0.378816 -2.8812 0
M  V30 794 H 80.5216 -1.08725 -2.33531 0
M  V30 795 H 80.4796 0.458239 -3.11043 0
M  V30 796 N 84.2517 0.741722 -1.39055 0
M  V30 797 C 85.4797 1.53098 -1.39171 0
M  V30 798 C 85.8947 1.88794 0.0155099 0
M  V30 799 O 85.2517 1.53626 0.985159 0
M  V30 800 C 85.3027 2.82274 -2.2584 0
M  V30 801 O 85.0237 2.48097 -3.61081 0
M  V30 802 C 86.5247 3.76343 -2.34266 0
M  V30 803 H 83.7447 0.473335 -0.4756 0
M  V30 804 H 86.2887 0.917045 -1.82785 0
M  V30 805 H 84.4437 3.40015 -1.85656 0
M  V30 806 H 84.8577 3.31029 -4.06842 0
M  V30 807 H 86.3317 4.63898 -2.9917 0
M  V30 808 H 86.8087 4.17619 -1.35982 0
M  V30 809 H 87.4147 3.24523 -2.74891 0
M  V30 810 N 85.7298 1.2412 0.971189 0
M  V30 811 C 86.6618 0.988349 2.06795 0
M  V30 812 C 87.6748 -0.0409541 1.62748 0
M  V30 813 O 88.8638 0.195673 1.77424 0
M  V30 814 C 85.9638 0.469023 3.35639 0
M  V30 815 C 85.1368 1.56065 4.08611 0
M  V30 816 C 84.1958 1.04458 5.15728 0
M  V30 817 O 83.2218 1.73553 5.42096 0
M  V30 818 N 84.4238 -0.122817 5.8037 0
M  V30 819 H 87.1888 1.93265 2.29061 0
M  V30 820 H 84.7498 1.15102 1.13856 0
M  V30 821 H 86.7418 0.108613 4.04554 0
M  V30 822 H 85.3118 -0.380919 3.1027 0
M  V30 823 H 84.5318 2.09341 3.34021 0
M  V30 824 H 85.8198 2.29449 4.54126 0
M  V30 825 H 85.2178 -0.700563 5.61345 0
M  V30 826 H 83.7748 -0.424404 6.50417 0
M  V30 827 N 87.2079 -1.17134 1.05439 0
M  V30 828 C 88.1379 -2.2342 0.678649 0
M  V30 829 C 89.1189 -1.66971 -0.32476 0
M  V30 830 O 90.3039 -1.93149 -0.201802 0
M  V30 831 C 87.4339 -3.47256 0.0552099 0
M  V30 832 C 86.3879 -4.16543 0.98365 0
M  V30 833 C 85.7139 -5.34231 0.223961 0
M  V30 834 C 87.0139 -4.68495 2.3089 0
M  V30 835 H 88.7079 -2.55105 1.56722 0
M  V30 836 H 86.2539 -1.2262 0.754998 0
M  V30 837 H 88.2069 -4.20828 -0.21946 0
M  V30 838 H 86.9309 -3.14846 -0.868319 0
M  V30 839 H 85.5899 -3.44887 1.24293 0
M  V30 840 H 85.2379 -4.98071 -0.702412 0
M  V30 841 H 84.9379 -5.81527 0.842627 0
M  V30 842 H 86.4619 -6.10585 -0.0433671 0
M  V30 843 H 87.8759 -5.33691 2.09396 0
M  V30 844 H 86.2729 -5.26379 2.88176 0
M  V30 845 H 87.3429 -3.85169 2.94572 0
M  V30 846 N 88.686 -0.835752 -1.33615 0
M  V30 847 C 89.934 -0.429109 -1.97492 0
M  V30 848 C 90.255 1.01433 -1.66543 0
M  V30 849 O 89.525 1.70611 -0.962744 0
M  V30 850 H 88.105 -0.155686 -0.730596 0
M  V30 851 H 90.767 -1.06802 -1.63031 0
M  V30 852 H 89.863 -0.55861 -3.0706 0
M  V30 853 N 90.1641 1.46063 -0.591896 0
M  V30 854 C 91.0941 2.33172 0.123673 0
M  V30 855 C 92.0751 1.45897 0.87453 0
M  V30 856 O 93.2601 1.74698 0.848181 0
M  V30 857 C 90.3901 3.28336 1.13194 0
M  V30 858 C 89.3441 4.25124 0.495324 0
M  V30 859 C 88.6701 5.09863 1.61071 0
M  V30 860 C 89.9701 5.19143 -0.573425 0
M  V30 861 H 91.6641 2.93252 -0.603646 0
M  V30 862 H 89.2101 1.41014 -0.291741 0
M  V30 863 H 91.1631 3.88137 1.64097 0
M  V30 864 H 89.8871 2.66383 1.88965 0
M  V30 865 H 88.5461 3.66599 0.00729452 0
M  V30 866 H 88.1941 4.44288 2.35832 0
M  V30 867 H 87.8941 5.75417 1.19035 0
M  V30 868 H 89.4181 5.72529 2.12233 0
M  V30 869 H 90.8321 5.73106 -0.1491 0
M  V30 870 H 89.2291 5.93089 -0.914636 0
M  V30 871 H 90.2991 4.62519 -1.45617 0
M  V30 872 N 91.6422 0.330177 1.54103 0
M  V30 873 C 92.8702 -0.272179 2.05102 0
M  V30 874 C 93.2852 -1.45267 1.20595 0
M  V30 875 O 92.6422 -1.8094 0.238144 0
M  V30 876 C 92.6932 -0.70023 3.54653 0
M  V30 877 O 92.4142 0.433301 4.35952 0
M  V30 878 C 93.9152 -1.3647 4.21771 0
M  V30 879 H 91.1352 -0.0549159 0.668749 0
M  V30 880 H 93.6792 0.478285 1.98828 0
M  V30 881 H 91.8342 -1.40066 3.61193 0
M  V30 882 H 92.2482 0.0947539 5.24414 0
M  V30 883 H 93.7222 -1.61509 5.27843 0
M  V30 884 H 94.1992 -2.31409 3.73292 0
M  V30 885 H 94.8052 -0.706675 4.19388 0
M  V30 886 N 93.1203 -1.57491 0.0584922 0
M  V30 887 C 94.3673 -1.92978 -0.613648 0
M  V30 888 C 94.6953 -0.937461 -1.70417 0
M  V30 889 O 93.9503 0.049078 -1.95638 0
M  V30 890 C 94.2493 -3.3513 -1.24188 0
M  V30 891 C 93.9153 -4.50037 -0.278826 0
M  V30 892 C 92.5773 -4.81198 -0.0138447 0
M  V30 893 C 94.9293 -5.19807 0.380777 0
M  V30 894 C 92.2573 -5.79473 0.918052 0
M  V30 895 C 94.6093 -6.19079 1.30091 0
M  V30 896 C 93.2733 -6.48665 1.57449 0
M  V30 897 H 92.5433 -0.706157 -0.22455 0
M  V30 898 H 95.1903 -1.91082 0.126533 0
M  V30 899 H 93.4953 -3.33429 -2.05749 0
M  V30 900 H 95.1923 -3.59871 -1.769 0
M  V30 901 H 91.7823 -4.25726 -0.495539 0
M  V30 902 H 95.9663 -4.95939 0.189158 0
M  V30 903 H 91.2223 -6.00727 1.1374 0
M  V30 904 H 95.3963 -6.7225 1.81804 0
M  V30 905 H 93.0233 -7.24628 2.29822 0
M  V30 906 N 94.5984 0.214957 -1.56127 0
M  V30 907 C 95.8264 0.955092 -1.83536 0
M  V30 908 C 96.2414 1.77677 -0.638472 0
M  V30 909 O 95.5984 1.78219 0.392968 0
M  V30 910 C 95.6494 1.86734 -3.09536 0
M  V30 911 O 95.3704 1.07887 -4.24608 0
M  V30 912 C 96.8714 2.72082 -3.4998 0
M  V30 913 H 94.0914 0.279611 -0.609966 0
M  V30 914 H 96.6354 0.228197 -2.03223 0
M  V30 915 H 94.7904 2.5481 -2.91806 0
M  V30 916 H 95.2044 1.69872 -4.9623 0
M  V30 917 H 96.6784 3.31782 -4.41163 0
M  V30 918 H 97.1554 3.44806 -2.7204 0
M  V30 919 H 97.7614 2.09409 -3.70173 0
M  V30 920 N 96.0765 1.50051 0.48192 0
M  V30 921 C 97.3065 1.63999 1.2565 0
M  V30 922 C 97.7145 0.318288 1.86504 0
M  V30 923 O 97.0575 -0.708534 1.69486 0
M  V30 924 C 97.1195 2.66504 2.4128 0
M  V30 925 C 96.7835 4.10352 2.01148 0
M  V30 926 C 97.7805 4.96562 1.54021 0
M  V30 927 C 95.4655 4.56203 2.10199 0
M  V30 928 C 97.4595 6.26668 1.16473 0
M  V30 929 C 95.1465 5.86318 1.72264 0
M  V30 930 C 96.1445 6.71375 1.25477 0
M  V30 931 O 95.8325 7.99062 0.880626 0
M  V30 932 H 95.5645 0.55456 0.386574 0
M  V30 933 H 98.1185 1.96954 0.582944 0
M  V30 934 H 96.3485 2.28769 3.11772 0
M  V30 935 H 98.0375 2.69783 3.03268 0
M  V30 936 H 98.8035 4.62358 1.46458 0
M  V30 937 H 94.6825 3.90152 2.45566 0
M  V30 938 H 98.2265 6.93011 0.798841 0
M  V30 939 H 94.1235 6.20046 1.79482 0
M  V30 940 H 94.8915 8.12239 1.01043 0
M  V30 941 N 97.5546 -0.734337 1.39446 0
M  V30 942 C 98.4876 -1.85715 1.32609 0
M  V30 943 C 99.4656 -1.6137 0.199636 0
M  V30 944 O 100.65 -1.84626 0.380195 0
M  V30 945 C 97.7766 -3.21709 1.05929 0
M  V30 946 C 96.8226 -3.64913 2.20773 0
M  V30 947 S 97.6556 -3.74203 3.83056 0
M  V30 948 C 98.8116 -5.12986 3.58603 0
M  V30 949 H 99.0446 -1.91232 2.27635 0
M  V30 950 H 96.5776 -0.899263 1.25509 0
M  V30 951 H 98.5356 -4.00236 0.912203 0
M  V30 952 H 97.1966 -3.13848 0.125883 0
M  V30 953 H 96.3896 -4.63606 1.97699 0
M  V30 954 H 95.9916 -2.93593 2.31688 0
M  V30 955 H 98.2836 -5.99339 3.15909 0
M  V30 956 H 99.2266 -5.41088 4.5676 0
M  V30 957 H 99.6346 -4.82694 2.9269 0
M  V30 958 N 99.0327 -1.24633 -0.964593 0
M  V30 959 C 99.9957 -1.0424 -2.04124 0
M  V30 960 C 100.996 0.00137563 -1.608 0
M  V30 961 O 102.186 -0.239883 -1.7254 0
M  V30 962 C 99.3177 -0.580588 -3.3592 0
M  V30 963 H 100.511 -1.99803 -2.23649 0
M  V30 964 H 98.0637 -1.06899 -1.14027 0
M  V30 965 H 98.7987 0.3781 -3.22088 0
M  V30 966 H 98.5837 -1.33398 -3.6871 0
M  V30 967 H 100.074 -0.459034 -4.15069 0
M  V30 968 N 100.511 1.16574 -1.06058 0
M  V30 969 C 101.739 1.90952 -0.796552 0
M  V30 970 C 102.154 1.77302 0.648808 0
M  V30 971 O 101.511 1.11605 1.44397 0
M  V30 972 C 101.562 3.41736 -1.17894 0
M  V30 973 O 101.283 3.54975 -2.56758 0
M  V30 974 C 102.784 4.33169 -0.942308 0
M  V30 975 H 100.004 0.605594 -0.288959 0
M  V30 976 H 102.548 1.47777 -1.41358 0
M  V30 977 H 100.703 3.82623 -0.606491 0
M  V30 978 H 101.117 4.4846 -2.72 0
M  V30 979 H 102.591 5.37439 -1.25952 0
M  V30 980 H 103.068 4.3903 0.122078 0
M  V30 981 H 103.674 3.98007 -1.49902 0
M  V30 982 N 101.989 0.842826 1.3317 0
M  V30 983 C 103.266 0.362216 1.92217 0
M  V30 984 C 103.646 -1.15289 1.76838 0
M  V30 985 O 102.994 -1.96914 1.15919 0
M  V30 986 C 103.204 0.813495 3.39387 0
M  V30 987 C 104.552 0.823804 4.16532 0
M  V30 988 O 105.576 0.757358 3.48055 0
M  V30 989 O 104.435 0.915193 5.38782 0
M  V30 990 H 101.529 0.103317 0.820521 0
M  V30 991 H 104.075 0.928942 1.42017 0
M  V30 992 H 102.847 1.85624 3.4447 0
M  V30 993 H 102.47 0.223561 3.96971 0
M  V30 994 N 103.467 -1.45747 0.599634 0
M  V30 995 C 104.415 -2.322 -0.136426 0
M  V30 996 C 105.409 -1.45497 -0.867583 0
M  V30 997 O 106.615 -1.62027 -0.78405 0
M  V30 998 H 102.99 -0.749368 -0.0628588 0
M  V30 999 H 104.961 -2.92072 0.611281 0
M  V30 1000 C 103.71 -3.28974 -1.12567 0
M  V30 1001 H 103.033 -3.9568 -0.572484 0
M  V30 1002 H 104.473 -3.92212 -1.61077 0
M  V30 1003 C 102.932 -2.55561 -2.19523 0
M  V30 1004 O 103.462 -2.33111 -3.27143 0
M  V30 1005 N 101.668 -2.15832 -1.94589 0
M  V30 1006 H 101.215 -2.3429 -1.07078 0
M  V30 1007 H 101.173 -1.67034 -2.66359 0
M  V30 1008 N 104.945 -0.338344 -1.53925 0
M  V30 1009 C 106.194 0.260732 -2.00008 0
M  V30 1010 C 106.507 1.52073 -1.23017 0
M  V30 1011 O 107.713 2.19672 -1.5955 0
M  V30 1012 C 106.169 0.51515 -3.56194 0
M  V30 1013 C 105.777 -0.728645 -4.42035 0
M  V30 1014 C 107.521 1.07337 -4.10706 0
M  V30 1015 C 105.428 -0.445315 -5.89721 0
M  V30 1016 H 104.358 0.101205 -0.747177 0
M  V30 1017 H 107.009 -0.452866 -1.77824 0
M  V30 1018 H 105.391 1.28932 -3.74423 0
M  V30 1019 H 106.565 -1.50352 -4.35581 0
M  V30 1020 H 104.88 -1.20813 -3.98489 0
M  V30 1021 H 107.477 1.30022 -5.18651 0
M  V30 1022 H 107.82 2.0273 -3.63602 0
M  V30 1023 H 108.353 0.360034 -3.96167 0
M  V30 1024 H 105.092 -1.36883 -6.41049 0
M  V30 1025 H 104.612 0.291569 -5.99091 0
M  V30 1026 H 106.291 -0.0606218 -6.46972 0
M  V30 1027 N 106.423 1.57458 -0.0668435 0
M  V30 1028 C 107.671 1.92919 0.602214 0
M  V30 1029 C 107.992 0.947215 1.70449 0
M  V30 1030 O 107.262 -0.00544117 1.95899 0
M  V30 1031 H 105.842 0.71217 0.22544 0
M  V30 1032 H 108.504 1.94508 -0.123535 0
M  V30 1033 H 107.6 2.94589 1.03073 0
M  V30 1034 N 107.901 -0.206675 1.56239 0
M  V30 1035 C 109.147 -0.930218 1.80208 0
M  V30 1036 C 109.48 -1.83387 0.638981 0
M  V30 1037 O 108.755 -1.91119 -0.361066 0
M  V30 1038 C 109.038 -1.75641 3.1436 0
M  V30 1039 C 108.891 -0.878257 4.41142 0
M  V30 1040 C 110.21 -2.73129 3.45092 0
M  V30 1041 H 107.329 -0.336742 0.655571 0
M  V30 1042 H 109.971 -0.198222 1.88963 0
M  V30 1043 H 108.121 -2.38048 3.07027 0
M  V30 1044 H 109.793 -0.269787 4.6051 0
M  V30 1045 H 108.036 -0.184385 4.33408 0
M  V30 1046 H 108.707 -1.49106 5.3148 0
M  V30 1047 H 111.183 -2.20856 3.52649 0
M  V30 1048 H 110.059 -3.28028 4.40101 0
M  V30 1049 H 110.32 -3.51606 2.68003 0
M  V30 1050 N 109.379 -1.50304 -0.473955 0
M  V30 1051 C 110.289 -1.7174 -1.5982 0
M  V30 1052 C 111.305 -0.600457 -1.63311 0
M  V30 1053 O 112.481 -0.878441 -1.81233 0
M  V30 1054 C 109.546 -1.80427 -2.96052 0
M  V30 1055 C 108.607 -3.04148 -3.02972 0
M  V30 1056 C 107.84 -3.12411 -4.32706 0
M  V30 1057 O 108.063 -2.27542 -5.23049 0
M  V30 1058 O 106.997 -4.05113 -4.45159 0
M  V30 1059 H 110.823 -2.67035 -1.44657 0
M  V30 1060 H 108.408 -1.34366 -0.653148 0
M  V30 1061 H 110.29 -1.88338 -3.7697 0
M  V30 1062 H 108.965 -0.883156 -3.11419 0
M  V30 1063 H 107.872 -3.0174 -2.21142 0
M  V30 1064 H 109.205 -3.95829 -2.92541 0
M  V30 1065 N 110.857 0.726932 -1.39834 0
M  V30 1066 C 111.787 1.85405 -1.41941 0
M  V30 1067 C 112.768 1.67751 -0.281728 0
M  V30 1068 O 113.953 1.8795 -0.488717 0
M  V30 1069 C 111.083 3.23243 -1.2701 0
M  V30 1070 C 110.037 3.55549 -2.38262 0
M  V30 1071 C 109.363 4.9241 -2.08415 0
M  V30 1072 C 110.663 3.577 -3.80589 0
M  V30 1073 H 112.357 1.83899 -2.36266 0
M  V30 1074 H 109.903 0.883349 -1.13723 0
M  V30 1075 H 111.856 4.01775 -1.27103 0
M  V30 1076 H 110.58 3.25296 -0.291564 0
M  V30 1077 H 109.239 2.79351 -2.37399 0
M  V30 1078 H 108.887 4.91052 -1.0898 0
M  V30 1079 H 108.587 5.14992 -2.82943 0
M  V30 1080 H 110.111 5.73289 -2.10171 0
M  V30 1081 H 111.525 4.26293 -3.83337 0
M  V30 1082 H 109.922 3.91804 -4.54543 0
M  V30 1083 H 110.992 2.57328 -4.10987 0
M  V30 1084 N 112.336 1.25143 0.95797 0
M  V30 1085 C 113.266 1.07711 2.07173 0
M  V30 1086 C 114.247 -0.0128462 1.70095 0
M  V30 1087 O 115.432 0.156061 1.93572 0
M  V30 1088 C 112.562 0.691503 3.40346 0
M  V30 1089 C 111.516 1.73132 3.9142 0
M  V30 1090 C 110.842 1.20049 5.21049 0
M  V30 1091 C 112.142 3.1294 4.1817 0
M  V30 1092 H 113.836 2.00873 2.22014 0
M  V30 1093 H 111.382 0.967191 1.06684 0
M  V30 1094 H 113.335 0.556505 4.17709 0
M  V30 1095 H 112.059 -0.275819 3.25433 0
M  V30 1096 H 110.718 1.8547 3.16222 0
M  V30 1097 H 110.366 0.223499 5.02503 0
M  V30 1098 H 110.066 1.89545 5.56189 0
M  V30 1099 H 111.59 1.07782 6.01012 0
M  V30 1100 H 113.004 3.03775 4.86203 0
M  V30 1101 H 111.401 3.79875 4.64559 0
M  V30 1102 H 112.471 3.6025 3.24573 0
M  V30 1103 N 113.814 -1.1601 1.06675 0
M  V30 1104 C 114.777 -2.18724 0.685001 0
M  V30 1105 C 115.777 -1.58496 -0.271246 0
M  V30 1106 O 116.967 -1.74119 -0.0531156 0
M  V30 1107 C 114.099 -3.40899 0.00853648 0
M  V30 1108 H 115.292 -2.54011 1.59431 0
M  V30 1109 H 112.845 -1.30352 0.862441 0
M  V30 1110 H 113.58 -3.11173 -0.913337 0
M  V30 1111 H 113.365 -3.8587 0.696204 0
M  V30 1112 H 114.855 -4.16886 -0.24414 0
M  V30 1113 N 115.292 -0.849877 -1.32721 0
M  V30 1114 C 116.255 -0.296122 -2.27279 0
M  V30 1115 C 117.255 0.541458 -1.5141 0
M  V30 1116 O 118.445 0.353658 -1.70572 0
M  V30 1117 C 115.577 0.581579 -3.35902 0
M  V30 1118 H 116.77 -1.13064 -2.77771 0
M  V30 1119 H 114.323 -0.62383 -1.43311 0
M  V30 1120 H 115.058 1.43809 -2.9067 0
M  V30 1121 H 114.843 -0.0178814 -3.92096 0
M  V30 1122 H 116.333 0.961951 -4.0637 0
M  V30 1123 N 116.77 1.45427 -0.607355 0
M  V30 1124 C 117.998 2.06614 -0.108814 0
M  V30 1125 C 118.413 1.45204 1.2067 0
M  V30 1126 O 117.77 0.566132 1.73497 0
M  V30 1127 C 117.821 3.61481 0.0375347 0
M  V30 1128 O 117.542 4.20598 -1.22593 0
M  V30 1129 C 119.043 4.39652 0.567561 0
M  V30 1130 H 116.263 0.66747 -0.0687351 0
M  V30 1131 H 118.807 1.86675 -0.835022 0
M  V30 1132 H 116.962 3.80762 0.714068 0
M  V30 1133 H 117.376 5.1377 -1.05547 0
M  V30 1134 H 118.85 5.48518 0.61905 0
M  V30 1135 H 119.327 4.09417 1.58978 0
M  V30 1136 H 119.933 4.25234 -0.0749202 0
M  V30 1137 N 118.248 0.346503 1.53744 0
M  V30 1138 C 119.659 -0.136779 1.86198 0
M  V30 1139 C 120.01 -1.49749 1.26766 0
M  V30 1140 O 119.135 -2.08417 0.582355 0
M  V30 1141 C 119.73 -0.254966 3.37839 0
M  V30 1142 C 118.289 -0.682482 3.70161 0
M  V30 1143 C 117.436 0.181981 2.76702 0
M  V30 1144 H 120.387 0.565994 1.48264 0
M  V30 1145 H 120.408 -1.08195 3.64793 0
M  V30 1146 H 119.92 0.735526 3.81066 0
M  V30 1147 H 118.021 -1.68189 3.3248 0
M  V30 1148 H 118.134 -0.470326 4.76786 0
M  V30 1149 H 116.498 -0.34615 2.52337 0
M  V30 1150 H 117.281 1.16966 3.2276 0
M  V30 1151 N 119.726 -1.57421 0.075193 0
M  V30 1152 C 120.973 -1.93618 -0.593146 0
M  V30 1153 C 121.301 -0.955484 -1.69413 0
M  V30 1154 O 120.556 0.0283251 -1.9568 0
M  V30 1155 C 120.855 -3.36428 -1.20626 0
M  V30 1156 C 120.521 -4.50307 -0.231078 0
M  V30 1157 C 119.183 -4.81186 0.0371936 0
M  V30 1158 C 121.535 -5.19374 0.435888 0
M  V30 1159 C 118.863 -5.78466 0.979461 0
M  V30 1160 C 121.215 -6.17665 1.3665 0
M  V30 1161 C 119.879 -6.46958 1.6432 0
M  V30 1162 H 119.149 -0.708499 -0.217047 0
M  V30 1163 H 121.796 -1.90937 0.146793 0
M  V30 1164 H 120.101 -3.35592 -2.02201 0
M  V30 1165 H 121.798 -3.61727 -1.73073 0
M  V30 1166 H 118.388 -4.26227 -0.450357 0
M  V30 1167 H 122.572 -4.95711 0.241748 0
M  V30 1168 H 117.828 -5.99487 1.20106 0
M  V30 1169 H 122.002 -6.70284 1.88924 0
M  V30 1170 H 119.629 -7.2215 2.37494 0
M  V30 1171 N 121.204 0.198386 -1.56346 0
M  V30 1172 C 122.62 0.549085 -1.49857 0
M  V30 1173 C 122.82 1.86016 -0.774611 0
M  V30 1174 O 121.876 2.50416 -0.323776 0
M  V30 1175 C 123.189 0.606868 -2.94512 0
M  V30 1176 C 124.737 0.695925 -3.05165 0
M  V30 1177 C 125.212 0.784848 -4.51225 0
M  V30 1178 N 126.703 0.848463 -4.55363 0
M  V30 1179 C 127.438 0.937378 -5.65686 0
M  V30 1180 N 126.934 0.9888 -6.85707 0
M  V30 1181 N 128.727 0.974312 -5.53592 0
M  V30 1182 H 120.878 -0.661655 -2.01831 0
M  V30 1183 H 123.141 -0.235261 -0.918344 0
M  V30 1184 H 122.847 -0.28732 -3.50524 0
M  V30 1185 H 122.721 1.46268 -3.47686 0
M  V30 1186 H 125.108 1.58055 -2.49204 0
M  V30 1187 H 125.189 -0.186022 -2.55123 0
M  V30 1188 H 124.833 -0.0954072 -5.0781 0
M  V30 1189 H 124.763 1.68255 -4.98997 0
M  V30 1190 H 127.254 0.818103 -3.68938 0
M  V30 1191 H 127.567 1.05707 -7.65536 0
M  V30 1192 H 125.912 0.957534 -6.88372 0
M  V30 1193 H 129.103 0.930954 -4.58749 0
M  V30 1194 H 129.276 1.04015 -6.39597 0
M  V30 1195 N 122.682 1.50554 0.465978 0
M  V30 1196 C 123.632 1.66177 1.56106 0
M  V30 1197 C 124.616 0.516265 1.52393 0
M  V30 1198 O 125.808 0.770906 1.5933 0
M  V30 1199 C 122.937 1.76396 2.94515 0
M  V30 1200 C 122.023 2.9664 3.03093 0
M  V30 1201 N 122.414 4.20245 2.81474 0
M  V30 1202 C 120.712 2.95304 3.34233 0
M  V30 1203 C 121.413 5.01259 2.95151 0
M  V30 1204 N 120.389 4.35318 3.25576 0
M  V30 1205 H 124.191 2.59434 1.38099 0
M  V30 1206 H 121.705 1.47808 0.6728 0
M  V30 1207 H 123.702 1.85694 3.73261 0
M  V30 1208 H 122.362 0.843017 3.13565 0
M  V30 1209 H 123.373 4.4966 2.56956 0
M  V30 1210 H 120.05 2.12729 3.59239 0
M  V30 1211 H 121.44 6.09564 2.82632 0
M  V30 1212 N 124.16 -0.719506 1.40217 0
M  V30 1213 C 125.107 -1.83359 1.40172 0
M  V30 1214 C 126.077 -1.64065 0.259206 0
M  V30 1215 O 127.262 -1.85254 0.456677 0
M  V30 1216 C 124.402 -3.2103 1.26624 0
M  V30 1217 C 123.515 -3.51923 2.50548 0
M  V30 1218 C 122.65 -4.79079 2.29471 0
M  V30 1219 C 121.689 -5.02863 3.48992 0
M  V30 1220 N 120.826 -6.2123 3.27135 0
M  V30 1221 H 125.666 -1.82733 2.35399 0
M  V30 1222 H 123.203 -0.892688 1.16917 0
M  V30 1223 H 125.161 -4.00524 1.16776 0
M  V30 1224 H 123.791 -3.20895 0.350176 0
M  V30 1225 H 122.843 -2.67014 2.70939 0
M  V30 1226 H 124.155 -3.6541 3.39525 0
M  V30 1227 H 123.309 -5.66582 2.16955 0
M  V30 1228 H 122.048 -4.67794 1.37913 0
M  V30 1229 H 121.053 -4.13816 3.6199 0
M  V30 1230 H 122.278 -5.16023 4.41472 0
M  V30 1231 H 120.224 -6.11204 2.38256 0
M  V30 1232 H 120.141 -6.35375 4.09675 0
M  V30 1233 H 121.409 -7.11532 3.18344 0
M  V30 1234 N 125.638 -1.25649 -0.95132 0
M  V30 1235 C 126.887 -1.09988 -1.69073 0
M  V30 1236 C 127.2 0.358355 -1.92289 0
M  V30 1237 O 128.406 0.635466 -2.63958 0
M  V30 1238 C 126.862 -1.92012 -3.044 0
M  V30 1239 C 126.47 -3.42347 -2.88968 0
M  V30 1240 C 128.214 -1.8493 -3.82101 0
M  V30 1241 C 126.121 -4.16655 -4.19705 0
M  V30 1242 H 125.051 -0.407993 -0.63408 0
M  V30 1243 H 127.702 -1.49873 -1.05879 0
M  V30 1244 H 126.084 -1.44952 -3.68517 0
M  V30 1245 H 127.258 -3.97104 -2.33762 0
M  V30 1246 H 125.573 -3.50557 -2.24719 0
M  V30 1247 H 128.17 -2.37739 -4.78941 0
M  V30 1248 H 128.513 -0.817883 -4.08187 0
M  V30 1249 H 129.046 -2.29758 -3.2474 0
M  V30 1250 H 125.785 -5.20224 -3.98807 0
M  V30 1251 H 125.305 -3.66681 -4.74663 0
M  V30 1252 H 126.984 -4.24551 -4.88227 0
M  V30 1253 N 127.117 1.15442 -1.07289 0
M  V30 1254 C 128.365 1.85845 -0.794096 0
M  V30 1255 C 128.686 1.82692 0.681809 0
M  V30 1256 O 127.956 1.26741 1.49377 0
M  V30 1257 H 126.536 0.688089 -0.290763 0
M  V30 1258 H 129.198 1.39947 -1.3565 0
M  V30 1259 H 128.294 2.91001 -1.12804 0
M  V30 1260 N 128.595 0.856903 1.32268 0
M  V30 1261 C 129.823 0.475439 2.01363 0
M  V30 1262 C 130.238 -0.928486 1.64392 0
M  V30 1263 O 129.595 -1.60624 0.866387 0
M  V30 1264 C 129.646 0.607545 3.56358 0
M  V30 1265 O 129.367 1.95617 3.92002 0
M  V30 1266 C 130.868 0.225382 4.42727 0
M  V30 1267 H 128.088 0.186636 0.644521 0
M  V30 1268 H 130.632 1.15446 1.68797 0
M  V30 1269 H 128.787 -0.0237719 3.87393 0
M  V30 1270 H 129.201 1.95455 4.86721 0
M  V30 1271 H 130.675 0.368813 5.50767 0
M  V30 1272 H 131.152 -0.834369 4.31202 0
M  V30 1273 H 131.758 0.831864 4.17085 0
M  V30 1274 N 130.073 -1.45103 0.615059 0
M  V30 1275 C 131.489 -1.57137 0.279322 0
M  V30 1276 C 131.689 -1.60523 -1.21797 0
M  V30 1277 O 130.745 -1.53956 -2.00134 0
M  V30 1278 C 132.058 -2.85062 0.957083 0
M  V30 1279 C 133.606 -2.98749 0.933706 0
M  V30 1280 C 134.081 -4.29455 1.59162 0
M  V30 1281 N 135.572 -4.36231 1.55746 0
M  V30 1282 C 136.307 -5.36051 2.0356 0
M  V30 1283 N 135.803 -6.42367 2.59494 0
M  V30 1284 N 137.596 -5.27456 1.94284 0
M  V30 1285 H 129.747 -1.41148 1.58717 0
M  V30 1286 H 132.01 -0.675331 0.665306 0
M  V30 1287 H 131.716 -2.88488 2.01166 0
M  V30 1288 H 131.59 -3.7407 0.48494 0
M  V30 1289 H 133.977 -2.94886 -0.112347 0
M  V30 1290 H 134.058 -2.11132 1.44419 0
M  V30 1291 H 133.702 -4.34077 2.63704 0
M  V30 1292 H 133.632 -5.15901 1.0561 0
M  V30 1293 H 136.123 -3.60011 1.14893 0
M  V30 1294 H 136.436 -7.14793 2.93752 0
M  V30 1295 H 134.781 -6.43097 2.63537 0
M  V30 1296 H 137.972 -4.43308 1.5032 0
M  V30 1297 H 138.145 -6.05099 2.3186 0
M  V30 1298 N 131.551 -0.354651 -1.53558 0
M  V30 1299 C 132.514 0.484566 -2.24019 0
M  V30 1300 C 133.514 1.01861 -1.24422 0
M  V30 1301 O 134.704 0.906097 -1.4878 0
M  V30 1302 C 131.836 1.67615 -2.96847 0
M  V30 1303 H 133.029 -0.131843 -2.9961 0
M  V30 1304 H 130.582 -0.106165 -1.55939 0
M  V30 1305 H 131.317 2.33095 -2.25471 0
M  V30 1306 H 131.102 1.30029 -3.69912 0
M  V30 1307 H 132.592 2.27114 -3.50441 0
M  V30 1308 N 133.029 1.57378 -0.0835403 0
M  V30 1309 C 134.257 1.98263 0.59157 0
M  V30 1310 C 134.672 0.962302 1.62435 0
M  V30 1311 O 134.029 -0.049581 1.82433 0
M  V30 1312 C 134.08 3.39214 1.24965 0
M  V30 1313 O 133.801 4.37339 0.258186 0
M  V30 1314 C 135.302 3.95038 2.01147 0
M  V30 1315 H 132.522 0.651773 0.159477 0
M  V30 1316 H 135.066 2.03878 -0.159415 0
M  V30 1317 H 133.221 3.34649 1.95164 0
M  V30 1318 H 133.635 5.19371 0.731734 0
M  V30 1319 H 135.109 4.95848 2.42567 0
M  V30 1320 H 135.586 3.32222 2.87272 0
M  V30 1321 H 136.192 4.0304 1.35789 0
M  V30 1322 N 134.507 -0.190092 1.56449 0
M  V30 1323 C 135.755 -0.907908 1.80559 0
M  V30 1324 C 136.076 -1.83583 0.657438 0
M  V30 1325 O 135.346 -1.93203 -0.323924 0
M  V30 1326 H 133.926 -0.338247 0.666032 0
M  V30 1327 H 136.588 -0.194403 1.93928 0
M  V30 1328 H 135.684 -1.49604 2.73907 0
M  V30 1329 N 135.985 -1.50799 -0.457987 0
M  V30 1330 C 137.262 -1.52968 -1.21902 0
M  V30 1331 C 137.642 -0.281906 -2.09209 0
M  V30 1332 O 136.99 0.734076 -2.16388 0
M  V30 1333 C 137.2 -2.8326 -2.03875 0
M  V30 1334 C 138.548 -3.34425 -2.6162 0
M  V30 1335 O 139.572 -2.8467 -2.14106 0
M  V30 1336 O 138.431 -4.21188 -3.48228 0
M  V30 1337 H 135.525 -0.614129 -0.553873 0
M  V30 1338 H 138.071 -1.63098 -0.468739 0
M  V30 1339 H 136.843 -3.65543 -1.39621 0
M  V30 1340 H 136.466 -2.76195 -2.8601 0
M  V30 1341 N 137.463 0.71206 -1.40597 0
M  V30 1342 C 138.712 1.46754 -1.38369 0
M  V30 1343 C 139.025 1.95598 0.0097839 0
M  V30 1344 O 140.231 2.71059 0.154677 0
M  V30 1345 C 138.687 2.65289 -2.43207 0
M  V30 1346 C 138.295 2.23301 -3.88382 0
M  V30 1347 C 140.039 3.43008 -2.50091 0
M  V30 1348 C 137.946 3.38696 -4.84808 0
M  V30 1349 H 136.876 0.55118 -0.514506 0
M  V30 1350 H 139.527 0.774616 -1.66349 0
M  V30 1351 H 137.909 3.36769 -2.08332 0
M  V30 1352 H 139.083 1.59218 -4.32419 0
M  V30 1353 H 137.398 1.58618 -3.85006 0
M  V30 1354 H 139.995 4.28881 -3.1932 0
M  V30 1355 H 140.338 3.87065 -1.53253 0
M  V30 1356 H 140.871 2.78574 -2.83974 0
M  V30 1357 H 137.61 2.99668 -5.82992 0
M  V30 1358 H 137.13 4.01683 -4.45433 0
M  V30 1359 H 138.809 4.04712 -5.04794 0
M  V30 1360 N 138.941 1.26152 0.944643 0
M  V30 1361 C 139.904 1.07474 2.0244 0
M  V30 1362 C 140.904 0.0242064 1.60782 0
M  V30 1363 O 142.094 0.267302 1.72137 0
M  V30 1364 C 139.226 0.633956 3.34953 0
M  V30 1365 H 140.419 2.03336 2.20442 0
M  V30 1366 H 137.972 1.087 1.12312 0
M  V30 1367 H 138.707 -0.326811 3.22649 0
M  V30 1368 H 138.492 1.39247 3.66542 0
M  V30 1369 H 139.982 0.52501 4.14287 0
M  V30 1370 N 140.419 -1.14872 1.07899 0
M  V30 1371 C 141.647 -1.89661 0.82683 0
M  V30 1372 C 142.062 -1.78312 -0.620519 0
M  V30 1373 O 141.419 -1.13888 -1.42604 0
M  V30 1374 C 141.47 -3.39817 1.23316 0
M  V30 1375 O 141.191 -3.50845 2.62372 0
M  V30 1376 C 142.692 -4.31615 1.0111 0
M  V30 1377 H 139.912 -0.60092 0.298557 0
M  V30 1378 H 142.456 -1.4551 1.43691 0
M  V30 1379 H 140.611 -3.8161 0.667286 0
M  V30 1380 H 141.025 -4.44076 2.79101 0
M  V30 1381 H 142.499 -5.35367 1.34486 0
M  V30 1382 H 142.976 -4.39169 -0.0522168 0
M  V30 1383 H 143.582 -3.95572 1.56215 0
M  V30 1384 N 141.898 -0.863906 -1.31812 0
M  V30 1385 C 143.144 -0.472535 -1.97218 0
M  V30 1386 C 143.477 0.971394 -1.68159 0
M  V30 1387 O 142.752 1.68309 -0.974798 0
M  V30 1388 C 143.035 -0.723054 -3.52766 0
M  V30 1389 C 142.888 -2.21608 -3.91421 0
M  V30 1390 C 144.207 -0.185522 -4.39709 0
M  V30 1391 H 141.326 -0.173158 -0.71637 0
M  V30 1392 H 143.968 -1.08403 -1.56041 0
M  V30 1393 H 142.118 -0.202577 -3.87971 0
M  V30 1394 H 143.79 -2.80334 -3.66347 0
M  V30 1395 H 142.033 -2.691 -3.40246 0
M  V30 1396 H 142.704 -2.34203 -4.99853 0
M  V30 1397 H 145.18 -0.630726 -4.11292 0
M  V30 1398 H 144.056 -0.390306 -5.47511 0
M  V30 1399 H 144.317 0.912229 -4.32586 0
M  V30 1400 N 143.376 1.44774 -0.622745 0
M  V30 1401 C 144.326 2.2774 0.108889 0
M  V30 1402 C 145.31 1.38189 0.824175 0
M  V30 1403 O 146.502 1.62063 0.711664 0
M  V30 1404 C 143.631 3.25353 1.09546 0
M  V30 1405 C 142.717 4.22392 0.380232 0
M  V30 1406 N 143.108 5.02388 -0.586535 0
M  V30 1407 C 141.406 4.41588 0.625792 0
M  V30 1408 C 142.107 5.72894 -1.00834 0
M  V30 1409 N 141.083 5.42479 -0.348878 0
M  V30 1410 H 144.885 2.86993 -0.63341 0
M  V30 1411 H 142.399 1.5611 -0.447589 0
M  V30 1412 H 144.396 3.83538 1.63414 0
M  V30 1413 H 143.056 2.6766 1.83815 0
M  V30 1414 H 144.067 5.0885 -0.963975 0
M  V30 1415 H 140.744 3.95003 1.352 0
M  V30 1416 H 142.134 6.47158 -1.80656 0
M  V30 1417 N 144.854 0.36279 1.53368 0
M  V30 1418 C 145.804 -0.501391 2.22419 0
M  V30 1419 C 146.788 -1.0509 1.2184 0
M  V30 1420 O 147.98 -0.981404 1.47301 0
M  V30 1421 C 145.109 -1.64201 3.01484 0
M  V30 1422 C 144.195 -1.10552 4.09438 0
M  V30 1423 N 144.586 -0.291788 5.04958 0
M  V30 1424 C 142.884 -1.3806 4.24094 0
M  V30 1425 C 143.585 0.00162655 5.817 0
M  V30 1426 N 142.561 -0.595244 5.40331 0
M  V30 1427 H 146.363 0.127159 2.93625 0
M  V30 1428 H 143.877 0.170658 1.61501 0
M  V30 1429 H 145.874 -2.27326 3.49469 0
M  V30 1430 H 144.534 -2.27365 2.31809 0
M  V30 1431 H 145.545 0.0687731 5.17854 0
M  V30 1432 H 142.222 -2.01522 3.65644 0
M  V30 1433 H 143.612 0.659278 6.68658 0
M  V30 1434 N 146.332 -1.57332 0.0918853 0
M  V30 1435 C 147.262 -2.16872 -0.865371 0
M  V30 1436 C 148.243 -1.10118 -1.29646 0
M  V30 1437 O 149.428 -1.38242 -1.36392 0
M  V30 1438 C 146.558 -2.74649 -2.12569 0
M  V30 1439 C 145.512 -3.86747 -1.83333 0
M  V30 1440 C 144.838 -4.31212 -3.16166 0
M  V30 1441 C 146.138 -5.10089 -1.1228 0
M  V30 1442 H 147.832 -2.97114 -0.369307 0
M  V30 1443 H 145.378 -1.42918 -0.176194 0
M  V30 1444 H 147.331 -3.14952 -2.7997 0
M  V30 1445 H 146.055 -1.91657 -2.64452 0
M  V30 1446 H 144.714 -3.46978 -1.18331 0
M  V30 1447 H 144.362 -3.45115 -3.6593 0
M  V30 1448 H 144.062 -5.06788 -2.97388 0
M  V30 1449 H 145.586 -4.74146 -3.84731 0
M  V30 1450 H 147 -5.47582 -1.69785 0
M  V30 1451 H 145.397 -5.91073 -1.03693 0
M  V30 1452 H 146.467 -4.84786 -0.105041 0
M  V30 1453 N 147.81 0.181792 -1.56548 0
M  V30 1454 C 149.221 0.745244 -1.71181 0
M  V30 1455 C 149.572 1.83262 -0.70068 0
M  V30 1456 O 148.697 2.15946 0.140154 0
M  V30 1457 C 149.292 1.35859 -3.10367 0
M  V30 1458 C 147.851 1.86898 -3.2672 0
M  V30 1459 C 146.998 0.743942 -2.67134 0
M  V30 1460 H 149.949 -0.0434661 -1.5864 0
M  V30 1461 H 149.97 2.22817 -3.08436 0
M  V30 1462 H 149.482 0.566948 -3.83937 0
M  V30 1463 H 147.583 2.68738 -2.5809 0
M  V30 1464 H 147.696 2.02162 -4.34359 0
M  V30 1465 H 146.06 1.16169 -2.26665 0
M  V30 1466 H 146.843 -0.035676 -3.43281 0
M  V30 1467 N 149.288 1.51039 0.449983 0
M  V30 1468 C 150.699 1.557 1.03026 0
M  V30 1469 C 151.05 0.372939 1.92623 0
M  V30 1470 O 150.175 -0.511771 2.10261 0
M  V30 1471 C 150.77 2.82171 1.87523 0
M  V30 1472 C 149.329 2.89444 2.40622 0
M  V30 1473 C 148.476 2.50228 1.19504 0
M  V30 1474 H 151.427 1.56999 0.231745 0
M  V30 1475 H 151.448 2.65219 2.72835 0
M  V30 1476 H 150.96 3.68331 1.22286 0
M  V30 1477 H 149.061 2.07685 3.0935 0
M  V30 1478 H 149.174 3.92816 2.74285 0
M  V30 1479 H 147.538 2.03139 1.53644 0
M  V30 1480 H 148.321 3.38719 0.558972 0
M  V30 1481 N 150.766 -0.704594 1.40972 0
M  V30 1482 C 151.994 -1.49354 1.43182 0
M  V30 1483 C 152.409 -1.88768 0.0345508 0
M  V30 1484 O 151.766 -1.56184 -0.944081 0
M  V30 1485 C 151.817 -2.76187 2.33244 0
M  V30 1486 O 151.538 -2.38436 3.67532 0
M  V30 1487 C 153.039 -3.7 2.44162 0
M  V30 1488 H 150.259 -0.460559 0.487982 0
M  V30 1489 H 152.803 -0.868261 1.85153 0
M  V30 1490 H 150.958 -3.34974 1.94606 0
M  V30 1491 H 151.372 -3.20126 4.15475 0
M  V30 1492 H 152.846 -4.55803 3.11364 0
M  V30 1493 H 153.323 -4.13867 1.47006 0
M  V30 1494 H 153.929 -3.17121 2.83398 0
M  V30 1495 N 152.244 -1.26651 -0.937939 0
M  V30 1496 C 153.174 -1.10993 -2.05433 0
M  V30 1497 C 154.155 -0.0142161 -1.70094 0
M  V30 1498 O 155.34 -0.186837 -1.93299 0
M  V30 1499 C 152.47 -0.745561 -3.39203 0
M  V30 1500 C 151.424 -1.79337 -3.88616 0
M  V30 1501 C 150.75 -1.28324 -5.19073 0
M  V30 1502 C 152.05 -3.19553 -4.13138 0
M  V30 1503 H 153.744 -2.0438 -2.1879 0
M  V30 1504 H 151.29 -0.984041 -1.05131 0
M  V30 1505 H 153.243 -0.622888 -4.16771 0
M  V30 1506 H 151.967 0.22401 -3.25831 0
M  V30 1507 H 150.626 -1.90477 -3.13231 0
M  V30 1508 H 150.274 -0.303414 -5.02084 0
M  V30 1509 H 149.974 -1.98369 -5.53103 0
M  V30 1510 H 151.498 -1.1733 -5.99221 0
M  V30 1511 H 152.912 -3.11471 -4.81309 0
M  V30 1512 H 151.309 -3.87218 -4.58457 0
M  V30 1513 H 152.379 -3.65368 -3.18801 0
M  V30 1514 N 153.722 1.14298 -1.08507 0
M  V30 1515 C 154.655 2.18447 -0.660004 0
M  V30 1516 C 155.633 1.59242 0.328749 0
M  V30 1517 O 156.817 1.87062 0.232367 0
M  V30 1518 C 153.944 3.38688 0.0290807 0
M  V30 1519 C 152.99 4.1646 -0.919982 0
M  V30 1520 S 153.823 4.77334 -2.42718 0
M  V30 1521 C 154.979 6.00931 -1.75024 0
M  V30 1522 H 155.212 2.54166 -1.54231 0
M  V30 1523 H 152.745 1.25446 -0.900149 0
M  V30 1524 H 154.703 4.08342 0.420378 0
M  V30 1525 H 153.364 3.01289 0.887895 0
M  V30 1526 H 152.557 5.02529 -0.384751 0
M  V30 1527 H 152.159 3.52414 -1.25223 0
M  V30 1528 H 154.451 6.69017 -1.06877 0
M  V30 1529 H 155.394 6.59044 -2.58971 0
M  V30 1530 H 155.802 5.51089 -1.22317 0
M  V30 1531 N 155.201 0.870884 1.31352 0
M  V30 1532 C 156.164 0.332243 2.26779 0
M  V30 1533 C 157.164 -0.517302 1.52252 0
M  V30 1534 O 158.354 -0.326477 1.71113 0
M  V30 1535 C 155.486 -0.528066 3.36785 0
M  V30 1536 H 156.679 1.17469 2.75937 0
M  V30 1537 H 154.232 0.64655 1.423 0
M  V30 1538 H 154.967 -1.39167 2.92922 0
M  V30 1539 H 154.752 0.0802582 3.92018 0
M  V30 1540 H 156.242 -0.897179 4.07849 0
M  V30 1541 N 156.679 -1.44442 0.630414 0
M  V30 1542 C 157.611 -2.2892 -0.113347 0
M  V30 1543 C 158.624 -1.41243 -0.80959 0
M  V30 1544 O 159.813 -1.65402 -0.671156 0
M  V30 1545 C 156.913 -3.17594 -1.18266 0
M  V30 1546 C 156.086 -4.33682 -0.569073 0
M  V30 1547 C 155.145 -5.03397 -1.53226 0
M  V30 1548 O 154.171 -5.59438 -1.04967 0
M  V30 1549 N 155.373 -5.04783 -2.86661 0
M  V30 1550 H 158.138 -2.93392 0.611636 0
M  V30 1551 H 155.699 -1.54881 0.471523 0
M  V30 1552 H 157.691 -3.61097 -1.82732 0
M  V30 1553 H 156.261 -2.54876 -1.80988 0
M  V30 1554 H 155.481 -3.9338 0.254187 0
M  V30 1555 H 156.769 -5.08608 -0.139767 0
M  V30 1556 H 156.167 -4.60584 -3.28449 0
M  V30 1557 H 154.724 -5.52077 -3.46489 0
M  V30 1558 N 158.157 -0.370918 -1.53173 0
M  V30 1559 C 159.403 0.209976 -2.02313 0
M  V30 1560 C 159.758 1.45987 -1.25322 0
M  V30 1561 O 159.051 1.8856 -0.339965 0
M  V30 1562 C 159.245 0.549696 -3.53147 0
M  V30 1563 C 159.074 -0.665721 -4.44745 0
M  V30 1564 C 157.844 -1.17942 -4.91343 0
M  V30 1565 C 160.042 -1.53255 -4.90935 0
M  V30 1566 N 158.024 -2.35431 -5.66962 0
M  V30 1567 C 159.395 -2.55403 -5.64951 0
M  V30 1568 C 161.45 -1.5548 -4.73002 0
M  V30 1569 C 160.153 -3.5964 -6.22938 0
M  V30 1570 C 162.179 -2.58613 -5.31858 0
M  V30 1571 C 161.541 -3.59485 -6.05764 0
M  V30 1572 H 157.64 0.0394095 -0.781006 0
M  V30 1573 H 160.224 -0.516666 -1.8772 0
M  V30 1574 H 158.395 1.24541 -3.67891 0
M  V30 1575 H 160.127 1.11614 -3.89004 0
M  V30 1576 H 156.882 -0.743228 -4.67732 0
M  V30 1577 H 157.306 -2.94827 -6.09431 0
M  V30 1578 H 161.948 -0.788457 -4.15383 0
M  V30 1579 H 159.666 -4.37153 -6.79649 0
M  V30 1580 H 163.252 -2.61195 -5.19873 0
M  V30 1581 H 162.132 -4.3798 -6.50495 0
M  V30 1582 N 159.635 1.57281 -0.100228 0
M  V30 1583 C 160.865 1.98591 0.569681 0
M  V30 1584 C 161.273 0.978315 1.61943 0
M  V30 1585 O 160.616 -0.0396108 1.83657 0
M  V30 1586 C 160.678 3.36282 1.271 0
M  V30 1587 C 160.342 4.55488 0.371409 0
M  V30 1588 C 161.339 5.18491 -0.382504 0
M  V30 1589 C 159.024 5.01474 0.287965 0
M  V30 1590 C 161.018 6.25852 -1.20779 0
M  V30 1591 C 158.705 6.08701 -0.540965 0
M  V30 1592 C 159.703 6.70755 -1.28749 0
M  V30 1593 O 159.391 7.75914 -2.10269 0
M  V30 1594 H 159.123 0.65752 0.156982 0
M  V30 1595 H 161.677 2.0463 -0.177734 0
M  V30 1596 H 159.907 3.26941 2.0651 0
M  V30 1597 H 161.596 3.62005 1.83595 0
M  V30 1598 H 162.362 4.83891 -0.3278 0
M  V30 1599 H 158.241 4.52932 0.858689 0
M  V30 1600 H 161.785 6.74218 -1.79096 0
M  V30 1601 H 157.682 6.42732 -0.597131 0
M  V30 1602 H 158.45 7.92925 -2.03007 0
M  V30 1603 N 161.113 -0.173488 1.56642 0
M  V30 1604 C 162.36 -0.890465 1.81871 0
M  V30 1605 C 162.688 -1.82339 0.67696 0
M  V30 1606 O 161.943 -1.92795 -0.335926 0
M  V30 1607 C 162.242 -1.72069 3.13252 0
M  V30 1608 C 161.908 -0.936878 4.41059 0
M  V30 1609 C 160.57 -0.720545 4.75775 0
M  V30 1610 C 162.922 -0.386919 5.19762 0
M  V30 1611 C 160.25 0.0568829 5.86672 0
M  V30 1612 C 162.602 0.37741 6.31473 0
M  V30 1613 C 161.266 0.604563 6.64757 0
M  V30 1614 H 160.536 -0.325844 0.665512 0
M  V30 1615 H 163.183 -0.155527 1.90867 0
M  V30 1616 H 161.488 -2.52496 2.99588 0
M  V30 1617 H 163.185 -2.27844 3.29982 0
M  V30 1618 H 159.775 -1.11553 4.13828 0
M  V30 1619 H 163.959 -0.541398 4.93338 0
M  V30 1620 H 159.215 0.242635 6.10918 0
M  V30 1621 H 163.389 0.810825 6.91664 0
M  V30 1622 H 161.016 1.20885 7.50527 0
M  V30 1623 N 162.591 -1.51276 -0.441967 0
M  V30 1624 C 163.839 -1.63392 -1.18943 0
M  V30 1625 C 164.16 -0.350159 -1.9183 0
M  V30 1626 O 163.43 0.633784 -1.85364 0
M  V30 1627 H 162.01 -0.602164 -0.442049 0
M  V30 1628 H 164.672 -1.88186 -0.507165 0
M  V30 1629 H 163.768 -2.45934 -1.92154 0
M  V30 1630 N 164.069 0.697108 -1.41344 0
M  V30 1631 C 165.346 1.45154 -1.31109 0
M  V30 1632 C 165.726 2.11009 0.0620449 0
M  V30 1633 O 165.074 2.01571 1.07618 0
M  V30 1634 C 165.284 2.47223 -2.46337 0
M  V30 1635 C 166.632 3.1252 -2.87431 0
M  V30 1636 O 167.656 2.57547 -2.46065 0
M  V30 1637 O 166.515 4.12083 -3.58957 0
M  V30 1638 H 163.609 0.646365 -0.515889 0
M  V30 1639 H 166.155 0.727716 -1.53305 0
M  V30 1640 H 164.927 1.97204 -3.37974 0
M  V30 1641 H 164.55 3.27116 -2.2601 0
M  V30 1642 N 165.547 1.27147 0.931209 0
M  V30 1643 C 166.51 1.09615 2.01289 0
M  V30 1644 C 167.51 0.0412581 1.60747 0
M  V30 1645 O 168.7 0.285545 1.71844 0
M  V30 1646 C 165.832 0.669447 3.34262 0
M  V30 1647 H 167.025 2.05662 2.18273 0
M  V30 1648 H 164.578 1.09885 1.11153 0
M  V30 1649 H 165.313 -0.292572 3.22978 0
M  V30 1650 H 165.098 1.43127 3.65044 0
M  V30 1651 H 166.588 0.568921 4.13706 0
M  V30 1652 N 167.025 -1.13721 1.09112 0
M  V30 1653 C 168.25 -1.89314 0.847053 0
M  V30 1654 C 168.675 -1.78416 -0.595774 0
M  V30 1655 O 168.033 -1.12942 -1.41823 0
M  V30 1656 C 168.081 -3.3701 1.28284 0
M  V30 1657 O 167.185 -4.10054 0.439267 0
M  V30 1658 H 166.526 -0.588745 0.307044 0
M  V30 1659 H 169.056 -1.43902 1.45442 0
M  V30 1660 H 169.066 -3.87834 1.26683 0
M  V30 1661 H 167.741 -3.4426 2.33363 0
M  V30 1662 H 166.318 -3.69266 0.519312 0
M  V30 1663 N 168.503 -0.877838 -1.30888 0
M  V30 1664 C 169.728 -0.506629 -2.01117 0
M  V30 1665 C 170.153 0.895564 -1.65412 0
M  V30 1666 O 169.511 1.5923 -0.866922 0
M  V30 1667 C 169.559 -0.680223 -3.54126 0
M  V30 1668 O 168.663 0.277033 -4.11468 0
M  V30 1669 H 168.004 -0.200518 -0.633 0
M  V30 1670 H 170.534 -1.18342 -1.66902 0
M  V30 1671 H 170.544 -0.5765 -4.03907 0
M  V30 1672 H 169.219 -1.70261 -3.79452 0
M  V30 1673 H 167.796 0.127606 -3.72682 0
M  V30 1674 N 169.982 1.44106 -0.638065 0
M  V30 1675 C 170.929 2.30715 0.062701 0
M  V30 1676 C 171.899 1.43882 0.829883 0
M  V30 1677 O 173.084 1.72775 0.809532 0
M  V30 1678 C 170.224 3.29258 1.03358 0
M  V30 1679 C 169.337 4.31192 0.26409 0
M  V30 1680 C 168.472 5.16825 1.22741 0
M  V30 1681 C 167.511 6.10462 0.447475 0
M  V30 1682 N 166.648 6.8877 1.36161 0
M  V30 1683 H 171.488 2.90096 -0.681781 0
M  V30 1684 H 169.025 1.42925 -0.347988 0
M  V30 1685 H 170.983 3.84886 1.60992 0
M  V30 1686 H 169.613 2.71562 1.74511 0
M  V30 1687 H 168.665 3.77981 -0.428295 0
M  V30 1688 H 169.977 4.97619 -0.343052 0
M  V30 1689 H 169.131 5.77004 1.87487 0
M  V30 1690 H 167.87 4.50488 1.86847 0
M  V30 1691 H 166.875 5.49386 -0.213433 0
M  V30 1692 H 168.1 6.78837 -0.188968 0
M  V30 1693 H 166.046 6.25096 1.98975 0
M  V30 1694 H 165.963 7.51663 0.808656 0
M  V30 1695 H 167.231 7.53467 1.99769 0
M  V30 1696 N 171.46 0.379036 1.52974 0
M  V30 1697 C 172.707 -0.206421 2.01445 0
M  V30 1698 C 173.035 -1.47668 1.26587 0
M  V30 1699 O 172.29 -1.92514 0.351675 0
M  V30 1700 C 172.589 -0.53096 3.53434 0
M  V30 1701 C 172.255 0.646546 4.46241 0
M  V30 1702 C 170.917 0.969604 4.7133 0
M  V30 1703 C 173.269 1.43479 5.01062 0
M  V30 1704 C 170.597 2.08263 5.48492 0
M  V30 1705 C 172.949 2.53834 5.7944 0
M  V30 1706 C 171.613 2.86659 6.02812 0
M  V30 1707 H 170.883 -0.0755349 0.73714 0
M  V30 1708 H 173.53 0.514271 1.84465 0
M  V30 1709 H 171.835 -1.33285 3.68432 0
M  V30 1710 H 173.532 -0.996417 3.88423 0
M  V30 1711 H 170.122 0.384734 4.2687 0
M  V30 1712 H 174.306 1.19844 4.81613 0
M  V30 1713 H 169.562 2.34078 5.64816 0
M  V30 1714 H 173.736 3.15319 6.20924 0
M  V30 1715 H 171.363 3.73026 6.62387 0
M  V30 1716 N 172.938 -1.57226 0.108567 0
M  V30 1717 C 174.354 -1.5766 -0.248058 0
M  V30 1718 C 174.554 -1.12063 -1.67464 0
M  V30 1719 O 173.61 -0.803236 -2.39383 0
M  V30 1720 C 174.923 -3.0069 -0.0242287 0
M  V30 1721 C 176.471 -3.12868 -0.0909372 0
M  V30 1722 C 176.946 -4.57879 0.105067 0
M  V30 1723 N 178.437 -4.63172 0.0506846 0
M  V30 1724 C 179.172 -5.73126 0.177396 0
M  V30 1725 N 178.668 -6.91866 0.359696 0
M  V30 1726 N 180.461 -5.61977 0.117709 0
M  V30 1727 H 172.612 -1.85169 1.04049 0
M  V30 1728 H 174.875 -0.85529 0.40888 0
M  V30 1729 H 174.581 -3.38299 0.961604 0
M  V30 1730 H 174.455 -3.6945 -0.76068 0
M  V30 1731 H 176.842 -2.75124 -1.06729 0
M  V30 1732 H 176.923 -2.46672 0.677225 0
M  V30 1733 H 176.567 -4.96321 1.07834 0
M  V30 1734 H 176.497 -5.22153 -0.682954 0
M  V30 1735 H 178.988 -3.778 -0.0871266 0
M  V30 1736 H 179.301 -7.71503 0.447529 0
M  V30 1737 H 177.646 -6.93874 0.395536 0
M  V30 1738 H 180.837 -4.68094 -0.0236741 0
M  V30 1739 H 181.01 -6.47627 0.219905 0
M  V30 1740 N 174.416 0.165178 -1.56732 0
M  V30 1741 C 175.827 0.727046 -1.71962 0
M  V30 1742 C 176.178 1.82508 -0.720078 0
M  V30 1743 O 175.303 2.16082 0.117242 0
M  V30 1744 C 175.898 1.32559 -3.11791 0
M  V30 1745 C 174.457 1.83422 -3.28684 0
M  V30 1746 C 173.604 0.715567 -2.67908 0
M  V30 1747 H 176.555 -0.0602896 -1.58585 0
M  V30 1748 H 176.576 2.19533 -3.10782 0
M  V30 1749 H 176.088 0.526195 -3.84516 0
M  V30 1750 H 174.189 2.65986 -2.60926 0
M  V30 1751 H 174.302 1.97543 -4.36478 0
M  V30 1752 H 172.666 1.13758 -2.27884 0
M  V30 1753 H 173.449 -0.0720836 -3.43224 0
M  V30 1754 N 175.894 1.51508 0.433938 0
M  V30 1755 C 177.124 1.67914 1.20369 0
M  V30 1756 C 177.532 0.377461 1.85397 0
M  V30 1757 O 176.875 -0.654255 1.71654 0
M  V30 1758 C 176.937 2.74045 2.32679 0
M  V30 1759 C 176.601 4.16543 1.87991 0
M  V30 1760 C 177.598 5.01211 1.38145 0
M  V30 1761 C 175.283 4.6266 1.95579 0
M  V30 1762 C 177.277 6.30056 0.964774 0
M  V30 1763 C 174.964 5.91501 1.53523 0
M  V30 1764 C 175.962 6.75027 1.04055 0
M  V30 1765 O 175.65 8.01459 0.625964 0
M  V30 1766 H 175.382 0.566578 0.368735 0
M  V30 1767 H 177.936 1.98709 0.51999 0
M  V30 1768 H 176.166 2.38572 3.04336 0
M  V30 1769 H 177.855 2.79295 2.94532 0
M  V30 1770 H 178.621 4.66783 1.31675 0
M  V30 1771 H 174.5 3.97767 2.33029 0
M  V30 1772 H 178.044 6.95202 0.57796 0
M  V30 1773 H 173.941 6.25442 1.59665 0
M  V30 1774 H 174.709 8.15043 0.751509 0
M  V30 1775 N 177.372 -0.689602 1.41712 0
M  V30 1776 C 178.618 -1.45181 1.41599 0
M  V30 1777 C 178.951 -1.94181 0.0270081 0
M  V30 1778 O 178.226 -1.6993 -0.946265 0
M  V30 1779 C 178.509 -2.65945 2.42787 0
M  V30 1780 C 178.362 -2.22672 3.90816 0
M  V30 1781 C 179.681 -3.68149 2.41151 0
M  V30 1782 H 176.8 -0.526576 0.515642 0
M  V30 1783 H 179.442 -0.784947 1.73028 0
M  V30 1784 H 177.592 -3.2284 2.16116 0
M  V30 1785 H 179.264 -1.71058 4.28412 0
M  V30 1786 H 177.507 -1.54394 4.05395 0
M  V30 1787 H 178.178 -3.0935 4.57172 0
M  V30 1788 H 180.654 -3.2094 2.64834 0
M  V30 1789 H 179.53 -4.50248 3.13955 0
M  V30 1790 H 179.791 -4.18259 1.43221 0
M  V30 1791 N 178.85 -1.27639 -0.924453 0
M  V30 1792 C 180.098 -1.13941 -1.66918 0
M  V30 1793 C 180.419 0.314589 -1.92446 0
M  V30 1794 O 179.689 1.21964 -1.53303 0
M  V30 1795 H 178.269 -0.418678 -0.618642 0
M  V30 1796 H 180.931 -1.60213 -1.10985 0
M  V30 1797 H 180.027 -1.67094 -2.63602 0
M  V30 1798 N 180.328 1.1314 -1.09713 0
M  V30 1799 C 181.291 2.16831 -0.742751 0
M  V30 1800 C 182.291 1.59159 0.229129 0
M  V30 1801 O 183.481 1.74199 0.00693237 0
M  V30 1802 C 180.613 3.40756 -0.0989168 0
M  V30 1803 H 181.806 2.49695 -1.66109 0
M  V30 1804 H 179.359 1.2802 -0.896699 0
M  V30 1805 H 180.094 3.13485 0.830514 0
M  V30 1806 H 179.879 3.83888 -0.798265 0
M  V30 1807 H 181.369 4.17386 0.133524 0
M  V30 1808 N 181.806 0.884767 1.30421 0
M  V30 1809 C 183.054 0.502112 1.95763 0
M  V30 1810 C 183.375 -0.951815 1.70192 0
M  V30 1811 O 182.645 -1.6692 1.0254 0
M  V30 1812 H 181.225 0.182694 0.724315 0
M  V30 1813 H 183.887 1.1278 1.58955 0
M  V30 1814 H 182.983 0.672188 3.04775 0
M  V30 1815 N 183.284 -1.43765 0.645699 0
M  V30 1816 C 184.533 -2.01116 0.153412 0
M  V30 1817 C 184.846 -1.51493 -1.23731 0
M  V30 1818 O 186.052 -2.01067 -1.8244 0
M  V30 1819 C 184.508 -3.59206 0.223473 0
M  V30 1820 C 184.116 -4.17823 1.61642 0
M  V30 1821 C 185.86 -4.23972 -0.211597 0
M  V30 1822 C 183.767 -5.68183 1.64081 0
M  V30 1823 H 182.697 -0.752093 0.0535891 0
M  V30 1824 H 185.348 -1.6482 0.806633 0
M  V30 1825 H 183.73 -3.92867 -0.497118 0
M  V30 1826 H 184.904 -3.95674 2.36176 0
M  V30 1827 H 183.219 -3.65399 1.99681 0
M  V30 1828 H 185.816 -5.34275 -0.213112 0
M  V30 1829 H 186.159 -3.97352 -1.24165 0
M  V30 1830 H 186.692 -3.95166 0.456988 0
M  V30 1831 H 183.431 -5.99559 2.64971 0
M  V30 1832 H 182.951 -5.9241 0.938611 0
M  V30 1833 H 184.63 -6.32085 1.3812 0
M  V30 1834 N 184.763 -0.387143 -1.52771 0
M  V30 1835 C 185.711 0.463953 -2.27926 0
M  V30 1836 C 186.705 1.06493 -1.31741 0
M  V30 1837 O 187.911 1.00565 -1.49287 0
M  V30 1838 H 184.286 0.16837 -0.732909 0
M  V30 1839 H 186.257 -0.19141 -2.97785 0
M  V30 1840 C 185.006 1.5803 -3.09713 0
M  V30 1841 H 184.329 1.12718 -3.83581 0
M  V30 1842 H 185.769 2.15008 -3.65442 0
M  V30 1843 C 184.228 2.53509 -2.2189 0
M  V30 1844 O 184.758 3.56863 -1.84422 0
M  V30 1845 N 182.964 2.23199 -1.86093 0
M  V30 1846 H 182.511 1.39185 -2.16761 0
M  V30 1847 H 182.469 2.87333 -1.27621 0
M  V30 1848 N 186.241 1.57166 -0.116904 0
M  V30 1849 C 187.471 1.99184 0.548586 0
M  V30 1850 C 187.879 0.995436 1.60897 0
M  V30 1851 O 187.222 -0.0201293 1.83689 0
M  V30 1852 C 187.284 3.37611 1.23526 0
M  V30 1853 C 186.948 4.55857 0.323077 0
M  V30 1854 C 187.945 5.18056 -0.437476 0
M  V30 1855 C 185.63 5.01751 0.234761 0
M  V30 1856 C 187.624 6.24536 -1.2741 0
M  V30 1857 C 185.311 6.08093 -0.605496 0
M  V30 1858 C 186.309 6.69352 -1.35856 0
M  V30 1859 O 185.997 7.7364 -2.18487 0
M  V30 1860 H 185.729 0.659148 0.149999 0
M  V30 1861 H 188.283 2.0443 -0.199428 0
M  V30 1862 H 186.513 3.29113 2.0303 0
M  V30 1863 H 188.202 3.63932 1.79745 0
M  V30 1864 H 188.968 4.83516 -0.379105 0
M  V30 1865 H 184.847 4.53817 0.810601 0
M  V30 1866 H 188.391 6.72281 -1.86237 0
M  V30 1867 H 184.288 6.42063 -0.665268 0
M  V30 1868 H 185.056 7.90727 -2.11406 0
M  V30 1869 N 187.719 -0.156864 1.56817 0
M  V30 1870 C 188.947 -0.886316 1.86955 0
M  V30 1871 C 189.362 -1.75185 0.703975 0
M  V30 1872 O 188.719 -1.79555 -0.326552 0
M  V30 1873 C 188.77 -1.75117 3.16253 0
M  V30 1874 O 188.491 -0.920537 4.2832 0
M  V30 1875 C 189.992 -2.58905 3.59837 0
M  V30 1876 H 187.212 -0.25678 0.619923 0
M  V30 1877 H 189.756 -0.152615 2.0393 0
M  V30 1878 H 187.911 -2.43805 3.01062 0
M  V30 1879 H 188.325 -1.51337 5.02192 0
M  V30 1880 H 189.799 -3.1518 4.53172 0
M  V30 1881 H 190.276 -3.34472 2.84649 0
M  V30 1882 H 190.882 -1.95526 3.7769 0
M  V30 1883 N 189.197 -1.51736 -0.425897 0
M  V30 1884 C 190.425 -1.68794 -1.1965 0
M  V30 1885 C 190.84 -0.390164 -1.84725 0
M  V30 1886 O 190.197 0.632376 -1.71194 0
M  V30 1887 C 190.248 -2.81174 -2.27208 0
M  V30 1888 O 189.969 -4.05925 -1.64793 0
M  V30 1889 C 191.47 -3.09599 -3.17275 0
M  V30 1890 H 188.69 -0.566128 -0.360194 0
M  V30 1891 H 191.234 -1.98211 -0.503249 0
M  V30 1892 H 189.389 -2.54324 -2.9223 0
M  V30 1893 H 189.803 -4.68423 -2.35967 0
M  V30 1894 H 191.277 -3.91786 -3.88854 0
M  V30 1895 H 191.754 -2.22468 -3.78688 0
M  V30 1896 H 192.36 -3.38151 -2.57941 0
M  V30 1897 N 190.675 0.682077 -1.42076 0
M  V30 1898 C 191.922 1.44215 -1.42156 0
M  V30 1899 C 192.25 1.94468 -0.0354186 0
M  V30 1900 O 191.505 1.70816 0.955002 0
M  V30 1901 C 191.804 2.66036 -2.38662 0
M  V30 1902 C 191.47 2.34366 -3.85206 0
M  V30 1903 C 190.132 2.25439 -4.25124 0
M  V30 1904 C 192.484 2.08513 -4.77673 0
M  V30 1905 C 189.812 1.88775 -5.55501 0
M  V30 1906 C 192.164 1.73354 -6.08384 0
M  V30 1907 C 190.828 1.62933 -6.47309 0
M  V30 1908 H 190.098 0.527718 -0.520187 0
M  V30 1909 H 192.745 0.778387 -1.74967 0
M  V30 1910 H 191.05 3.3741 -1.99152 0
M  V30 1911 H 192.747 3.24205 -2.35991 0
M  V30 1912 H 189.337 2.42213 -3.53597 0
M  V30 1913 H 193.521 2.14346 -4.47626 0
M  V30 1914 H 188.777 1.7927 -5.84527 0
M  V30 1915 H 192.951 1.52373 -6.79526 0
M  V30 1916 H 190.578 1.34292 -7.48244 0
M  V30 1917 N 192.153 1.28127 0.917671 0
M  V30 1918 C 193.4 1.15052 1.66641 0
M  V30 1919 C 193.728 -0.301677 1.92146 0
M  V30 1920 O 192.983 -1.23622 1.51711 0
M  V30 1921 C 193.282 1.89018 3.03327 0
M  V30 1922 C 192.948 3.38832 2.97496 0
M  V30 1923 C 191.61 3.79693 2.95613 0
M  V30 1924 C 193.962 4.34378 2.88036 0
M  V30 1925 C 191.29 5.14447 2.82066 0
M  V30 1926 C 193.642 5.69201 2.7603 0
M  V30 1927 C 192.306 6.09343 2.72502 0
M  V30 1928 H 191.576 0.421006 0.609783 0
M  V30 1929 H 194.223 1.58855 1.06945 0
M  V30 1930 H 192.528 1.37752 3.66785 0
M  V30 1931 H 194.225 1.76321 3.60156 0
M  V30 1932 H 190.815 3.06342 2.99754 0
M  V30 1933 H 194.999 4.03775 2.88581 0
M  V30 1934 H 190.255 5.44681 2.77728 0
M  V30 1935 H 194.429 6.42901 2.67678 0
M  V30 1936 H 192.056 7.13712 2.61762 0
M  V30 1937 N 193.631 -1.12557 1.10312 0
M  V30 1938 C 194.908 -1.80363 0.756878 0
M  V30 1939 C 195.288 -1.97067 -0.756824 0
M  V30 1940 O 194.636 -1.54601 -1.68259 0
M  V30 1941 C 194.846 -3.14812 1.50647 0
M  V30 1942 C 196.194 -3.90029 1.67817 0
M  V30 1943 O 197.218 -3.24464 1.46974 0
M  V30 1944 O 196.077 -5.07652 2.02365 0
M  V30 1945 H 193.171 -0.780667 0.272926 0
M  V30 1946 H 195.717 -1.19404 1.20586 0
M  V30 1947 H 194.489 -2.97936 2.53672 0
M  V30 1948 H 194.112 -3.83478 1.05026 0
M  V30 1949 N 195.109 -0.891671 -1.2995 0
M  V30 1950 C 196.057 -0.353066 -2.29905 0
M  V30 1951 C 197.051 0.543509 -1.60444 0
M  V30 1952 O 198.257 0.4272 -1.74857 0
M  V30 1953 H 194.632 -0.095531 -0.745907 0
M  V30 1954 H 196.603 -1.20961 -2.72784 0
M  V30 1955 C 195.352 0.411475 -3.45257 0
M  V30 1956 H 194.675 -0.269182 -3.98893 0
M  V30 1957 H 196.115 0.753328 -4.17254 0
M  V30 1958 C 194.574 1.6111 -2.9588 0
M  V30 1959 O 195.104 2.71045 -2.96475 0
M  V30 1960 N 193.31 1.45054 -2.51809 0
M  V30 1961 H 192.857 0.556175 -2.51524 0
M  V30 1962 H 192.815 2.25453 -2.1913 0
M  V30 1963 N 196.587 1.43421 -0.653314 0
M  V30 1964 C 197.835 2.01414 -0.166415 0
M  V30 1965 C 198.156 1.51803 1.22397 0
M  V30 1966 O 197.426 0.730693 1.81763 0
M  V30 1967 H 196.006 0.744703 -0.0585319 0
M  V30 1968 H 198.668 1.75629 -0.845003 0
M  V30 1969 H 197.764 3.11734 -0.151111 0
M  V30 1970 N 198.065 0.39524 1.52563 0
M  V30 1971 C 199.312 -0.185044 2.01653 0
M  V30 1972 C 199.64 -1.46317 1.28146 0
M  V30 1973 O 198.895 -1.9213 0.372074 0
M  V30 1974 C 199.194 -0.493444 3.53977 0
M  V30 1975 C 198.86 0.69384 4.4553 0
M  V30 1976 C 197.522 1.01954 4.70275 0
M  V30 1977 C 199.874 1.48785 4.99512 0
M  V30 1978 C 197.202 2.14069 5.46252 0
M  V30 1979 C 199.554 2.59965 5.76716 0
M  V30 1980 C 198.218 2.93037 5.99738 0
M  V30 1981 H 197.488 -0.0677123 0.7379 0
M  V30 1982 H 200.135 0.533807 1.8391 0
M  V30 1983 H 198.44 -1.29369 3.69825 0
M  V30 1984 H 200.137 -0.955163 3.89458 0
M  V30 1985 H 196.727 0.429987 4.26438 0
M  V30 1986 H 200.911 1.24946 4.80315 0
M  V30 1987 H 196.167 2.40056 5.62302 0
M  V30 1988 H 200.341 3.21887 6.17545 0
M  V30 1989 H 197.968 3.8003 6.58393 0
M  V30 1990 N 199.544 -1.57102 0.125237 0
M  V30 1991 C 200.492 -2.16905 -0.839927 0
M  V30 1992 C 201.486 -1.11998 -1.27094 0
M  V30 1993 O 202.692 -1.3029 -1.24195 0
M  V30 1994 H 199.067 -0.694252 -0.288995 0
M  V30 1995 H 201.038 -2.96774 -0.311115 0
M  V30 1996 C 199.787 -2.78795 -2.07771 0
M  V30 1997 H 199.11 -3.59221 -1.755 0
M  V30 1998 H 200.55 -3.2417 -2.73295 0
M  V30 1999 C 199.009 -1.76193 -2.87155 0
M  V30 2000 O 199.539 -1.21909 -3.82755 0
M  V30 2001 N 197.745 -1.45991 -2.51267 0
M  V30 2002 H 197.292 -1.90325 -1.73592 0
M  V30 2003 H 197.25 -0.775844 -3.04677 0
M  V30 2004 N 201.022 0.148545 -1.56898 0
M  V30 2005 C 202.299 0.890019 -1.74178 0
M  V30 2006 C 202.679 1.99407 -0.692839 0
M  V30 2007 O 202.027 2.26671 0.288505 0
M  V30 2008 C 202.237 1.43389 -3.18183 0
M  V30 2009 C 203.585 1.89791 -3.79822 0
M  V30 2010 O 204.609 1.53134 -3.21603 0
M  V30 2011 O 203.468 2.57387 -4.82093 0
M  V30 2012 H 200.562 0.420496 -0.712118 0
M  V30 2013 H 203.108 0.134591 -1.69165 0
M  V30 2014 H 201.88 0.640383 -3.86024 0
M  V30 2015 H 201.503 2.25287 -3.27615 0
M  V30 2016 N 202.5 1.5196 0.417844 0
M  V30 2017 C 203.45 1.7106 1.5074 0
M  V30 2018 C 204.434 0.564487 1.50673 0
M  V30 2019 O 205.626 0.821206 1.56797 0
M  V30 2020 C 202.755 1.85677 2.88754 0
M  V30 2021 C 201.841 3.06133 2.93502 0
M  V30 2022 N 202.232 4.28987 2.67962 0
M  V30 2023 C 200.53 3.05787 3.24669 0
M  V30 2024 C 201.231 5.10395 2.79055 0
M  V30 2025 N 200.207 4.45455 3.11561 0
M  V30 2026 H 204.009 2.63696 1.29775 0
M  V30 2027 H 201.523 1.49873 0.625436 0
M  V30 2028 H 203.52 1.97475 3.67164 0
M  V30 2029 H 202.18 0.942348 3.10725 0
M  V30 2030 H 203.191 4.57607 2.4252 0
M  V30 2031 H 199.868 2.2405 3.52289 0
M  V30 2032 H 201.258 6.18247 2.63097 0
M  V30 2033 N 203.978 -0.674533 1.42435 0
M  V30 2034 C 205.226 -1.43175 1.42637 0
M  V30 2035 C 205.547 -1.94951 0.0438992 0
M  V30 2036 O 204.817 -1.7308 -0.917607 0
M  V30 2037 H 203.397 -0.531307 0.525092 0
M  V30 2038 H 206.059 -0.797006 1.77859 0
M  V30 2039 H 205.155 -2.28463 2.12629 0
M  V30 2040 N 205.456 -1.28612 -0.910864 0
M  V30 2041 C 206.403 -1.12786 -2.01365 0
M  V30 2042 C 207.373 -0.024201 -1.66082 0
M  V30 2043 O 208.558 -0.189667 -1.89855 0
M  V30 2044 C 205.698 -0.798743 -3.35729 0
M  V30 2045 C 204.811 -1.98173 -3.83864 0
M  V30 2046 C 203.946 -1.59298 -5.06752 0
M  V30 2047 C 202.985 -2.74245 -5.47226 0
M  V30 2048 N 202.122 -2.35842 -6.61304 0
M  V30 2049 H 206.962 -2.07142 -2.14234 0
M  V30 2050 H 204.499 -1.03093 -1.0493 0
M  V30 2051 H 206.457 -0.588662 -4.13026 0
M  V30 2052 H 205.087 0.10789 -3.2262 0
M  V30 2053 H 204.139 -2.30386 -3.02699 0
M  V30 2054 H 205.451 -2.84343 -4.09818 0
M  V30 2055 H 204.605 -1.34513 -5.916 0
M  V30 2056 H 203.344 -0.702618 -4.82612 0
M  V30 2057 H 202.349 -2.99725 -4.60918 0
M  V30 2058 H 203.574 -3.63928 -5.73353 0
M  V30 2059 H 201.52 -1.49279 -6.38789 0
M  V30 2060 H 201.437 -3.15546 -6.86998 0
M  V30 2061 H 202.705 -2.14348 -7.4945 0
M  V30 2062 N 206.934 1.1197 -1.10907 0
M  V30 2063 C 207.844 2.21433 -0.774896 0
M  V30 2064 C 208.86 1.72478 0.229657 0
M  V30 2065 O 210.036 2.01288 0.0672008 0
M  V30 2066 C 207.101 3.4602 -0.216986 0
M  V30 2067 C 206.162 4.09791 -1.27944 0
M  V30 2068 C 205.395 5.28431 -0.748055 0
M  V30 2069 O 205.618 5.68823 0.423833 0
M  V30 2070 O 204.552 5.82644 -1.51027 0
M  V30 2071 H 208.378 2.5242 -1.68873 0
M  V30 2072 H 205.963 1.20399 -0.884555 0
M  V30 2073 H 207.845 4.21304 0.090059 0
M  V30 2074 H 206.52 3.16698 0.669633 0
M  V30 2075 H 205.427 3.36265 -1.63941 0
M  V30 2076 H 206.76 4.4328 -2.13925 0
M  V30 2077 N 208.412 0.89855 1.29475 0
M  V30 2078 C 209.375 0.380272 2.26023 0
M  V30 2079 C 210.375 -0.484891 1.53315 0
M  V30 2080 O 211.565 -0.290108 1.71767 0
M  V30 2081 C 208.697 -0.45651 3.3783 0
M  V30 2082 H 209.89 1.23295 2.73383 0
M  V30 2083 H 207.443 0.676589 1.40897 0
M  V30 2084 H 208.178 -1.32922 2.95808 0
M  V30 2085 H 207.963 0.163393 3.91759 0
M  V30 2086 H 209.453 -0.810466 4.0966 0
M  V30 2087 N 209.89 -1.43072 0.660911 0
M  V30 2088 C 211.138 -2.01323 0.177094 0
M  V30 2089 C 211.459 -1.5245 -1.2159 0
M  V30 2090 O 210.729 -0.740322 -1.81373 0
M  V30 2091 H 209.309 -0.744382 0.0624804 0
M  V30 2092 H 211.971 -1.75179 0.854305 0
M  V30 2093 H 211.067 -3.11649 0.167641 0
M  V30 2094 N 211.368 -0.403325 -1.52352 0
M  V30 2095 C 212.298 0.416205 -2.29761 0
M  V30 2096 C 213.279 1.05123 -1.33728 0
M  V30 2097 O 214.464 1.06134 -1.62632 0
M  V30 2098 C 211.594 1.53624 -3.11475 0
M  V30 2099 C 210.548 1.02653 -4.15507 0
M  V30 2100 C 209.874 2.23971 -4.85532 0
M  V30 2101 C 211.174 0.08463 -5.22231 0
M  V30 2102 H 212.868 -0.229701 -2.98518 0
M  V30 2103 H 210.414 -0.111913 -1.43564 0
M  V30 2104 H 212.367 2.1165 -3.64393 0
M  V30 2105 H 211.091 2.20994 -2.40477 0
M  V30 2106 H 209.75 0.46871 -3.63591 0
M  V30 2107 H 209.398 2.89883 -4.11068 0
M  V30 2108 H 209.098 1.90521 -5.55856 0
M  V30 2109 H 210.622 2.82614 -5.41259 0
M  V30 2110 H 212.036 0.573509 -5.70424 0
M  V30 2111 H 210.433 -0.160783 -5.99885 0
M  V30 2112 H 211.503 -0.86237 -4.7717 0
M  V30 2113 N 212.846 1.57033 -0.133567 0
M  V30 2114 C 214.071 2.00475 0.531477 0
M  V30 2115 C 214.496 1.01291 1.58499 0
M  V30 2116 O 213.854 -0.0133279 1.81295 0
M  V30 2117 C 213.902 3.42729 1.12113 0
M  V30 2118 O 213.006 3.46498 2.23636 0
M  V30 2119 H 212.347 0.650876 0.131362 0
M  V30 2120 H 214.877 2.03344 -0.22634 0
M  V30 2121 H 214.887 3.81246 1.4531 0
M  V30 2122 H 213.562 4.14428 0.349557 0
M  V30 2123 H 212.139 3.19811 1.91769 0
M  V30 2124 N 214.325 -0.140222 1.56975 0
M  V30 2125 C 215.602 -0.880769 1.74648 0
M  V30 2126 C 215.982 -1.99036 0.703404 0
M  V30 2127 O 215.33 -2.26821 -0.27648 0
M  V30 2128 C 215.54 -1.417 3.18939 0
M  V30 2129 C 216.888 -1.87774 3.80823 0
M  V30 2130 O 217.912 -1.51427 3.2241 0
M  V30 2131 O 216.771 -2.54827 4.83452 0
M  V30 2132 H 213.865 -0.416713 0.714338 0
M  V30 2133 H 216.411 -0.125618 1.69234 0
M  V30 2134 H 215.183 -0.619902 3.86359 0
M  V30 2135 H 214.806 -2.23546 3.28805 0
M  V30 2136 N 215.803 -1.52179 -0.40978 0
M  V30 2137 C 216.733 -1.78435 -1.5061 0
M  V30 2138 C 217.714 -0.635295 -1.57791 0
M  V30 2139 O 218.899 -0.880823 -1.73076 0
M  V30 2140 C 216.029 -1.93444 -2.88439 0
M  V30 2141 C 214.983 -3.09038 -2.96108 0
M  V30 2142 C 214.309 -3.09268 -4.36185 0
M  V30 2143 C 215.609 -4.48508 -2.67652 0
M  V30 2144 H 217.303 -2.70237 -1.28889 0
M  V30 2145 H 214.849 -1.30036 -0.618605 0
M  V30 2146 H 216.802 -2.10394 -3.65119 0
M  V30 2147 H 215.526 -0.983129 -3.11452 0
M  V30 2148 H 214.185 -2.91837 -2.21872 0
M  V30 2149 H 213.833 -2.11861 -4.56206 0
M  V30 2150 H 213.533 -3.86907 -4.42241 0
M  V30 2151 H 215.057 -3.28348 -5.14801 0
M  V30 2152 H 216.471 -4.65918 -3.34056 0
M  V30 2153 H 214.868 -5.28059 -2.85085 0
M  V30 2154 H 215.938 -4.56649 -1.63095 0
M  V30 2155 N 217.281 0.66697 -1.42791 0
M  V30 2156 C 218.506 1.46004 -1.47301 0
M  V30 2157 C 218.931 1.87894 -0.0880317 0
M  V30 2158 O 218.289 1.56502 0.915253 0
M  V30 2159 C 218.337 2.68031 -2.41229 0
M  V30 2160 O 217.441 3.6659 -1.88906 0
M  V30 2161 H 216.782 0.43832 -0.49877 0
M  V30 2162 H 219.312 0.817391 -1.87563 0
M  V30 2163 H 219.322 3.1601 -2.58073 0
M  V30 2164 H 217.997 2.36883 -3.41847 0
M  V30 2165 H 216.574 3.25661 -1.81656 0
M  V30 2166 N 218.759 1.29093 0.90403 0
M  V30 2167 C 219.689 1.16401 2.02418 0
M  V30 2168 C 220.67 0.0593085 1.69997 0
M  V30 2169 O 221.855 0.238021 1.92736 0
M  V30 2170 C 218.985 0.835233 3.37107 0
M  V30 2171 C 217.939 1.89578 3.83724 0
M  V30 2172 C 217.265 1.42041 5.15489 0
M  V30 2173 C 218.565 3.30394 4.04521 0
M  V30 2174 H 220.259 2.10109 2.13295 0
M  V30 2175 H 217.805 1.01157 1.02486 0
M  V30 2176 H 219.758 0.733169 4.14973 0
M  V30 2177 H 218.482 -0.137543 3.2631 0
M  V30 2178 H 217.141 1.98715 3.08071 0
M  V30 2179 H 216.789 0.436426 5.01103 0
M  V30 2180 H 216.489 2.12964 5.4765 0
M  V30 2181 H 218.013 1.33176 5.959 0
M  V30 2182 H 219.427 3.24123 4.72882 0
M  V30 2183 H 217.824 3.99237 4.48029 0
M  V30 2184 H 218.894 3.73692 3.09002 0
M  V30 2185 N 220.237 -1.11381 1.11499 0
M  V30 2186 C 221.184 -2.17439 0.773887 0
M  V30 2187 C 222.154 -1.64132 -0.254899 0
M  V30 2188 O 223.339 -1.90345 -0.13168 0
M  V30 2189 C 220.479 -3.44373 0.223917 0
M  V30 2190 C 219.592 -4.1168 1.30934 0
M  V30 2191 C 218.727 -5.263 0.71984 0
M  V30 2192 C 217.766 -5.85493 1.78507 0
M  V30 2193 N 216.903 -6.91507 1.21502 0
M  V30 2194 H 221.743 -2.45962 1.68246 0
M  V30 2195 H 219.28 -1.20744 0.840191 0
M  V30 2196 H 221.238 -4.17047 -0.112921 0
M  V30 2197 H 219.868 -3.16232 -0.647851 0
M  V30 2198 H 218.92 -3.37073 1.76312 0
M  V30 2199 H 220.232 -4.51729 2.11524 0
M  V30 2200 H 219.386 -6.05785 0.333094 0
M  V30 2201 H 218.125 -4.87559 -0.117377 0
M  V30 2202 H 217.13 -5.04686 2.18111 0
M  V30 2203 H 218.355 -6.26301 2.62533 0
M  V30 2204 H 216.301 -6.54783 0.399455 0
M  V30 2205 H 216.218 -7.30214 1.95763 0
M  V30 2206 H 217.486 -7.74795 0.855181 0
M  V30 2207 N 221.715 -0.905404 -1.28997 0
M  V30 2208 C 222.992 -0.453513 -1.9027 0
M  V30 2209 C 223.372 1.06721 -1.82137 0
M  V30 2210 O 222.72 1.91159 -1.25182 0
M  V30 2211 C 222.93 -0.974494 -3.35119 0
M  V30 2212 C 224.278 -1.0216 -4.12127 0
M  V30 2213 O 225.302 -0.922557 -3.44046 0
M  V30 2214 O 224.161 -1.17121 -5.33802 0
M  V30 2215 H 221.255 -0.142347 -0.814657 0
M  V30 2216 H 223.801 -0.995642 -1.37423 0
M  V30 2217 H 222.573 -2.01848 -3.35221 0
M  V30 2218 H 222.196 -0.412706 -3.95452 0
M  V30 2219 N 223.193 1.4272 -0.668489 0
M  V30 2220 C 224.418 2.06484 -0.194758 0
M  V30 2221 C 224.843 1.49862 1.13679 0
M  V30 2222 O 224.201 0.614582 1.70565 0
M  V30 2223 C 224.249 3.60353 -0.133546 0
M  V30 2224 O 223.353 4.02464 0.899806 0
M  V30 2225 H 222.694 0.656137 -0.10188 0
M  V30 2226 H 225.224 1.82964 -0.915722 0
M  V30 2227 H 225.234 4.07976 0.0447041 0
M  V30 2228 H 223.909 4.00938 -1.1055 0
M  V30 2229 H 222.486 3.66402 0.693109 0
M  V30 2230 N 224.671 0.411399 1.52136 0
M  V30 2231 C 225.917 -0.156262 2.02799 0
M  V30 2232 C 226.272 -1.42613 1.29149 0
M  V30 2233 O 225.565 -1.87592 0.389839 0
M  V30 2234 C 225.759 -0.455872 3.54481 0
M  V30 2235 C 225.588 0.783404 4.42824 0
M  V30 2236 C 224.358 1.30928 4.88043 0
M  V30 2237 C 226.556 1.66217 4.86699 0
M  V30 2238 N 224.538 2.5038 5.6052 0
M  V30 2239 C 225.909 2.70292 5.5798 0
M  V30 2240 C 227.964 1.67966 4.68713 0
M  V30 2241 C 226.667 3.7603 6.13184 0
M  V30 2242 C 228.693 2.72624 5.24815 0
M  V30 2243 C 228.055 3.7542 5.9602 0
M  V30 2244 H 224.154 -0.0186886 0.781777 0
M  V30 2245 H 226.738 0.566255 1.86284 0
M  V30 2246 H 224.909 -1.14743 3.71064 0
M  V30 2247 H 226.641 -1.01261 3.91827 0
M  V30 2248 H 223.396 0.866977 4.65597 0
M  V30 2249 H 223.82 3.10881 6.014 0
M  V30 2250 H 228.462 0.898312 4.13147 0
M  V30 2251 H 226.18 4.55019 6.6782 0
M  V30 2252 H 229.766 2.74887 5.12765 0
M  V30 2253 H 228.646 4.55073 6.38654 0
M  V30 2254 N 226.149 -1.5696 0.141893 0
M  V30 2255 C 227.397 -1.95573 -0.509484 0
M  V30 2256 C 227.718 -1.02746 -1.65736 0
M  V30 2257 O 226.988 -0.0880311 -1.95702 0
M  V30 2258 H 225.568 -0.722115 -0.191205 0
M  V30 2259 H 228.23 -1.93697 0.216196 0
M  V30 2260 H 227.326 -2.99171 -0.889 0
M  V30 2261 N 227.627 0.131896 -1.57047 0
M  V30 2262 C 228.59 1.14638 -1.98471 0
M  V30 2263 C 229.59 1.35029 -0.873148 0
M  V30 2264 O 230.78 1.31764 -1.13946 0
M  V30 2265 C 227.912 2.50358 -2.31373 0
M  V30 2266 H 229.105 0.79064 -2.8929 0
M  V30 2267 H 226.658 0.375761 -1.51716 0
M  V30 2268 H 227.393 2.90876 -1.43393 0
M  V30 2269 H 227.178 2.36915 -3.12432 0
M  V30 2270 H 228.668 3.23395 -2.64207 0
M  V30 2271 N 229.106 1.52395 0.401703 0
M  V30 2272 C 230.069 1.75636 1.47257 0
M  V30 2273 C 231.069 0.62628 1.48103 0
M  V30 2274 O 232.259 0.894227 1.49497 0
M  V30 2275 C 229.391 1.84553 2.86624 0
M  V30 2276 H 230.584 2.71241 1.27938 0
M  V30 2277 H 228.137 1.42923 0.632662 0
M  V30 2278 H 228.872 0.908882 3.11303 0
M  V30 2279 H 228.657 2.66715 2.87412 0
M  V30 2280 H 230.147 2.04251 3.64241 0
M  V30 2281 N 230.584 -0.659388 1.43143 0
M  V30 2282 C 231.832 -1.41654 1.44147 0
M  V30 2283 C 232.153 -1.94893 0.0645739 0
M  V30 2284 O 231.423 -1.74044 -0.899198 0
M  V30 2285 H 230.003 -0.525708 0.530697 0
M  V30 2286 H 232.665 -0.778097 1.78694 0
M  V30 2287 H 231.761 -2.26195 2.1504 0
M  V30 2288 N 232.062 -1.29571 -0.897171 0
M  V30 2289 C 232.994 -1.10724 -2.00681 0
M  V30 2290 C 234.007 -0.0540026 -1.6271 0
M  V30 2291 O 235.196 -0.298783 -1.75982 0
M  V30 2292 C 232.296 -0.663912 -3.32333 0
M  V30 2293 C 231.469 -1.79622 -3.98816 0
M  V30 2294 C 230.528 -1.34349 -5.0876 0
M  V30 2295 O 229.554 -2.04864 -5.31055 0
M  V30 2296 N 230.756 -0.215764 -5.80099 0
M  V30 2297 H 233.521 -2.06291 -2.17403 0
M  V30 2298 H 231.082 -1.21544 -1.06951 0
M  V30 2299 H 233.074 -0.344295 -4.03233 0
M  V30 2300 H 231.644 0.199375 -3.11964 0
M  V30 2301 H 230.864 -2.28459 -3.21248 0
M  V30 2302 H 232.152 -2.55535 -4.39976 0
M  V30 2303 H 231.55 0.372091 -5.64475 0
M  V30 2304 H 230.107 0.0444707 -6.51785 0
M  V30 2305 N 233.54 1.10788 -1.12088 0
M  V30 2306 C 234.786 1.82942 -0.875226 0
M  V30 2307 C 235.119 1.84779 0.597538 0
M  V30 2308 O 234.394 1.30578 1.44152 0
M  V30 2309 C 234.677 3.29789 -1.44606 0
M  V30 2310 C 234.53 3.36307 -2.98693 0
M  V30 2311 C 235.849 4.26064 -1.10261 0
M  V30 2312 H 232.968 0.664195 -0.319397 0
M  V30 2313 H 235.61 1.29867 -1.38689 0
M  V30 2314 H 233.76 3.75118 -1.01089 0
M  V30 2315 H 235.432 2.99487 -3.50864 0
M  V30 2316 H 233.675 2.76318 -3.34411 0
M  V30 2317 H 234.346 4.39694 -3.33726 0
M  V30 2318 H 236.822 3.88951 -1.4784 0
M  V30 2319 H 235.698 5.27183 -1.52869 0
M  V30 2320 H 235.959 4.42098 -0.0142953 0
M  V30 2321 N 235.018 0.912232 1.28515 0
M  V30 2322 C 236.266 0.543523 1.94654 0
M  V30 2323 C 236.587 -0.9155 1.72173 0
M  V30 2324 O 235.857 -1.64708 1.06058 0
M  V30 2325 H 234.437 0.198017 0.720277 0
M  V30 2326 H 237.099 1.16126 1.56527 0
M  V30 2327 H 236.195 0.736684 3.03281 0
M  V30 2328 N 236.496 -1.42363 0.676048 0
M  V30 2329 C 237.742 -2.0182 0.199125 0
M  V30 2330 C 238.075 -1.53339 -1.19168 0
M  V30 2331 O 237.35 -0.736124 -1.80032 0
M  V30 2332 C 237.633 -3.59331 0.235144 0
M  V30 2333 C 237.486 -4.17989 1.66149 0
M  V30 2334 C 238.805 -4.3813 -0.41595 0
M  V30 2335 H 235.924 -0.733293 0.0738311 0
M  V30 2336 H 238.566 -1.69368 0.86107 0
M  V30 2337 H 236.716 -3.87109 -0.328487 0
M  V30 2338 H 238.388 -4.0116 2.27747 0
M  V30 2339 H 236.631 -3.7377 2.20178 0
M  V30 2340 H 237.302 -5.27126 1.63837 0
M  V30 2341 H 239.778 -4.16051 0.0638529 0
M  V30 2342 H 238.654 -5.47717 -0.360115 0
M  V30 2343 H 238.915 -4.16101 -1.49373 0
M  V30 2344 N 237.974 -0.419461 -1.51915 0
M  V30 2345 C 239.251 0.211999 -1.94448 0
M  V30 2346 C 239.631 1.61703 -1.35703 0
M  V30 2347 O 238.979 2.22102 -0.536931 0
M  V30 2348 C 239.189 0.207872 -3.4838 0
M  V30 2349 C 240.537 0.422192 -4.22496 0
M  V30 2350 O 241.561 0.286778 -3.55044 0
M  V30 2351 O 240.42 0.690009 -5.42126 0
M  V30 2352 H 237.514 0.139586 -0.815135 0
M  V30 2353 H 240.06 -0.476151 -1.62883 0
M  V30 2354 H 238.832 -0.775102 -3.83546 0
M  V30 2355 H 238.455 0.939688 -3.86336 0
M  V30 2356 N 239.452 1.56882 -0.150215 0
M  V30 2357 C 240.682 2.00302 0.506213 0
M  V30 2358 C 241.09 1.02934 1.58749 0
M  V30 2359 O 240.433 0.0188384 1.8369 0
M  V30 2360 C 240.495 3.40156 1.16337 0
M  V30 2361 C 240.159 4.56439 0.226311 0
M  V30 2362 C 241.156 5.17012 -0.547265 0
M  V30 2363 C 238.841 5.02136 0.128279 0
M  V30 2364 C 240.835 6.21693 -1.40629 0
M  V30 2365 C 238.522 6.06672 -0.734345 0
M  V30 2366 C 239.52 6.6632 -1.50023 0
M  V30 2367 O 239.208 7.68831 -2.34848 0
M  V30 2368 H 238.94 0.662182 0.135984 0
M  V30 2369 H 241.494 2.03961 -0.242746 0
M  V30 2370 H 239.724 3.33346 1.96004 0
M  V30 2371 H 241.413 3.67663 1.71985 0
M  V30 2372 H 242.179 4.82603 -0.48158 0
M  V30 2373 H 238.058 4.55435 0.714157 0
M  V30 2374 H 241.602 6.68179 -2.00455 0
M  V30 2375 H 237.499 6.40507 -0.801309 0
M  V30 2376 H 238.267 7.86065 -2.28131 0
M  V30 2377 N 240.93 -0.123565 1.57115 0
M  V30 2378 C 241.86 -1.15309 2.03042 0
M  V30 2379 C 242.841 -1.43454 0.914061 0
M  V30 2380 O 244.026 -1.53973 1.18347 0
M  V30 2381 C 241.156 -2.48043 2.43089 0
M  V30 2382 C 240.11 -2.3437 3.58127 0
M  V30 2383 C 239.436 -3.72026 3.84059 0
M  V30 2384 C 240.736 -1.80804 4.90007 0
M  V30 2385 H 242.43 -0.771102 2.893 0
M  V30 2386 H 239.976 -0.369479 1.39179 0
M  V30 2387 H 241.929 -3.20311 2.73823 0
M  V30 2388 H 240.653 -2.88122 1.53796 0
M  V30 2389 H 239.312 -1.64551 3.27595 0
M  V30 2390 H 238.96 -4.09582 2.91979 0
M  V30 2391 H 238.66 -3.63732 4.6149 0
M  V30 2392 H 240.184 -4.45806 4.1724 0
M  V30 2393 H 241.598 -2.42886 5.19307 0
M  V30 2394 H 239.995 -1.83343 5.71407 0
M  V30 2395 H 241.065 -0.76528 4.78823 0
M  V30 2396 N 242.408 -1.52605 -0.393616 0
M  V30 2397 C 243.657 -1.66649 -1.13627 0
M  V30 2398 C 243.97 -0.410364 -1.91247 0
M  V30 2399 O 245.176 -0.430854 -2.68059 0
M  V30 2400 C 243.632 -2.9449 -2.06891 0
M  V30 2401 C 243.24 -4.27266 -1.34714 0
M  V30 2402 C 244.984 -3.17899 -2.81319 0
M  V30 2403 C 242.891 -5.46217 -2.26717 0
M  V30 2404 H 241.821 -0.62084 -0.427871 0
M  V30 2405 H 244.472 -1.791 -0.399428 0
M  V30 2406 H 242.854 -2.75774 -2.84191 0
M  V30 2407 H 244.028 -4.56518 -0.626714 0
M  V30 2408 H 242.343 -4.10081 -0.722643 0
M  V30 2409 H 244.94 -4.03949 -3.50328 0
M  V30 2410 H 245.283 -2.32777 -3.45139 0
M  V30 2411 H 245.816 -3.37159 -2.11113 0
M  V30 2412 H 242.555 -6.33733 -1.67521 0
M  V30 2413 H 242.075 -5.21283 -2.96689 0
M  V30 2414 H 243.754 -5.7991 -2.86903 0
M  V30 2415 N 243.887 0.651787 -1.4349 0
M  V30 2416 C 244.835 1.78586 -1.49029 0
M  V30 2417 C 245.829 1.65448 -0.363767 0
M  V30 2418 O 247.035 1.71777 -0.537821 0
M  V30 2419 H 243.41 0.589236 -0.467231 0
M  V30 2420 H 245.381 1.71035 -2.44519 0
M  V30 2421 C 244.13 3.16851 -1.43181 0
M  V30 2422 H 243.453 3.27598 -2.29171 0
M  V30 2423 H 244.893 3.96156 -1.51118 0
M  V30 2424 C 243.352 3.36568 -0.149616 0
M  V30 2425 O 243.882 3.93885 0.788509 0
M  V30 2426 N 242.088 2.90539 -0.0593484 0
M  V30 2427 H 241.635 2.4408 -0.823575 0
M  V30 2428 H 241.593 3.04108 0.797853 0
M  V30 2429 N 245.365 1.30045 0.890287 0
M  V30 2430 C 246.781 1.08261 1.17268 0
M  V30 2431 C 246.981 -0.160063 2.00863 0
M  V30 2432 O 246.037 -0.855181 2.37577 0
M  V30 2433 C 247.35 2.34323 1.8845 0
M  V30 2434 C 248.898 2.39735 2.01237 0
M  V30 2435 C 249.373 3.65625 2.7583 0
M  V30 2436 N 250.864 3.66402 2.83379 0
M  V30 2437 C 251.599 4.60498 3.41657 0
M  V30 2438 N 251.095 5.64933 4.01026 0
M  V30 2439 N 252.888 4.48051 3.39421 0
M  V30 2440 H 245.039 2.09777 0.332762 0
M  V30 2441 H 247.302 0.92446 0.209948 0
M  V30 2442 H 247.008 3.2498 1.34465 0
M  V30 2443 H 246.882 2.4256 2.88867 0
M  V30 2444 H 249.269 1.4956 2.54393 0
M  V30 2445 H 249.35 2.35476 0.999232 0
M  V30 2446 H 248.994 4.56156 2.23347 0
M  V30 2447 H 248.924 3.67144 3.77509 0
M  V30 2448 H 251.415 2.90896 2.41222 0
M  V30 2449 H 251.728 6.32841 4.43545 0
M  V30 2450 H 250.073 5.68732 3.99461 0
M  V30 2451 H 253.264 3.65649 2.92264 0
M  V30 2452 H 253.437 5.21565 3.84544 0
M  V30 2453 N 246.843 -1.10192 1.12674 0
M  V30 2454 C 248.12 -1.78717 0.794965 0
M  V30 2455 C 248.5 -1.98628 -0.714853 0
M  V30 2456 O 247.848 -1.58135 -1.64941 0
M  V30 2457 C 248.058 -3.11546 1.5729 0
M  V30 2458 C 249.406 -3.86382 1.76052 0
M  V30 2459 O 250.43 -3.21274 1.53823 0
M  V30 2460 O 249.289 -5.03246 2.13087 0
M  V30 2461 H 246.383 -0.774702 0.289423 0
M  V30 2462 H 248.929 -1.16819 1.23091 0
M  V30 2463 H 247.701 -2.92489 2.59935 0
M  V30 2464 H 247.324 -3.81164 1.13137 0
M  V30 2465 N 248.321 -0.919034 -1.28029 0
M  V30 2466 C 249.567 -0.565221 -1.95389 0
M  V30 2467 C 249.922 0.882325 -1.70976 0
M  V30 2468 O 249.215 1.61988 -1.02325 0
M  V30 2469 C 249.409 -0.816855 -3.4794 0
M  V30 2470 C 249.238 -2.28731 -3.87185 0
M  V30 2471 C 248.008 -2.93841 -4.11079 0
M  V30 2472 C 250.206 -3.26415 -3.97439 0
M  V30 2473 N 248.188 -4.31129 -4.37037 0
M  V30 2474 C 249.559 -4.48884 -4.27672 0
M  V30 2475 C 251.614 -3.21742 -3.79982 0
M  V30 2476 C 250.317 -5.67268 -4.42266 0
M  V30 2477 C 252.343 -4.39431 -3.95796 0
M  V30 2478 C 251.705 -5.60675 -4.26407 0
M  V30 2479 H 247.804 -0.256797 -0.738633 0
M  V30 2480 H 250.388 -1.18386 -1.54573 0
M  V30 2481 H 248.559 -0.227445 -3.87733 0
M  V30 2482 H 250.291 -0.426542 -4.02446 0
M  V30 2483 H 247.046 -2.44547 -4.05578 0
M  V30 2484 H 247.47 -5.02127 -4.5409 0
M  V30 2485 H 252.112 -2.29079 -3.55363 0
M  V30 2486 H 249.83 -6.60406 -4.65714 0
M  V30 2487 H 253.416 -4.37323 -3.83719 0
M  V30 2488 H 252.296 -6.50223 -4.38383 0
M  V30 2489 N 249.799 1.42003 -0.683588 0
M  V30 2490 C 250.729 2.33487 -0.024866 0
M  V30 2491 C 251.71 1.51163 0.779975 0
M  V30 2492 O 252.895 1.79739 0.735362 0
M  V30 2493 C 250.025 3.3487 0.920836 0
M  V30 2494 C 248.979 4.27414 0.223958 0
M  V30 2495 C 248.305 5.19074 1.2832 0
M  V30 2496 C 249.605 5.14445 -0.90242 0
M  V30 2497 H 251.299 2.88819 -0.788921 0
M  V30 2498 H 248.845 1.38873 -0.38083 0
M  V30 2499 H 250.798 3.97787 1.39081 0
M  V30 2500 H 249.522 2.77861 1.71642 0
M  V30 2501 H 248.181 3.65904 -0.225864 0
M  V30 2502 H 247.829 4.58387 2.071 0
M  V30 2503 H 247.529 5.81822 0.821995 0
M  V30 2504 H 249.053 5.84867 1.75392 0
M  V30 2505 H 250.467 5.70998 -0.513272 0
M  V30 2506 H 248.864 5.86072 -1.28997 0
M  V30 2507 H 249.934 4.52322 -1.74737 0
M  V30 2508 N 251.277 0.427512 1.51691 0
M  V30 2509 C 252.523 -0.142439 2.02299 0
M  V30 2510 C 252.856 -1.43214 1.31162 0
M  V30 2511 O 252.131 -1.89833 0.423511 0
M  V30 2512 C 252.414 -0.371301 3.58181 0
M  V30 2513 C 252.267 0.936358 4.39946 0
M  V30 2514 C 253.586 -1.14542 4.24933 0
M  V30 2515 H 250.705 -0.0502937 0.735282 0
M  V30 2516 H 253.347 0.564584 1.81418 0
M  V30 2517 H 251.497 -0.973559 3.76104 0
M  V30 2518 H 253.169 1.57184 4.33694 0
M  V30 2519 H 251.412 1.5432 4.05423 0
M  V30 2520 H 252.083 0.730388 5.47147 0
M  V30 2521 H 254.559 -0.635362 4.11221 0
M  V30 2522 H 253.435 -1.27431 5.33903 0
M  V30 2523 H 253.696 -2.17093 3.85127 0
M  V30 2524 N 252.755 -1.56801 0.158532 0
M  V30 2525 C 253.703 -2.18638 -0.793729 0
M  V30 2526 C 254.697 -1.14669 -1.24689 0
M  V30 2527 O 255.903 -1.32895 -1.21403 0
M  V30 2528 H 252.278 -0.700226 -0.274204 0
M  V30 2529 H 254.249 -2.97367 -0.248095 0
M  V30 2530 C 252.998 -2.83139 -2.0181 0
M  V30 2531 H 252.321 -3.62863 -1.67841 0
M  V30 2532 H 253.761 -3.29894 -2.66357 0
M  V30 2533 C 252.22 -1.82244 -2.83353 0
M  V30 2534 O 252.75 -1.3 -3.80083 0
M  V30 2535 N 250.956 -1.51288 -2.48114 0
M  V30 2536 H 250.503 -1.93964 -1.69516 0
M  V30 2537 H 250.461 -0.840296 -3.02963 0
M  V30 2538 N 254.233 0.115231 -1.57178 0
M  V30 2539 C 255.166 1.17166 -1.95825 0
M  V30 2540 C 256.144 1.39912 -0.828463 0
M  V30 2541 O 257.328 1.54004 -1.08697 0
M  V30 2542 C 254.455 2.52478 -2.25771 0
M  V30 2543 C 253.501 2.46136 -3.48309 0
M  V30 2544 S 254.334 1.89736 -5.0076 0
M  V30 2545 C 255.49 3.26713 -5.33863 0
M  V30 2546 H 255.723 0.842103 -2.85124 0
M  V30 2547 H 253.256 0.322136 -1.51002 0
M  V30 2548 H 255.214 3.30332 -2.43702 0
M  V30 2549 H 253.875 2.82609 -1.37079 0
M  V30 2550 H 253.068 3.45819 -3.66641 0
M  V30 2551 H 252.67 1.76404 -3.29784 0
M  V30 2552 H 254.962 4.22935 -5.29275 0
M  V30 2553 H 255.905 3.13205 -6.35065 0
M  V30 2554 H 256.313 3.25316 -4.61335 0
M  V30 2555 N 255.711 1.52812 0.385517 0
M  V30 2556 C 256.936 1.72207 1.15583 0
M  V30 2557 C 257.361 0.441034 1.82857 0
M  V30 2558 O 256.719 -0.603465 1.70962 0
M  V30 2559 C 256.767 2.87476 2.17692 0
M  V30 2560 O 255.871 2.54693 3.24354 0
M  V30 2561 H 255.212 0.572526 0.336319 0
M  V30 2562 H 257.742 1.99618 0.448744 0
M  V30 2563 H 257.752 3.13072 2.6163 0
M  V30 2564 H 256.427 3.80408 1.68115 0
M  V30 2565 H 255.004 2.3985 2.85529 0
M  V30 2566 N 257.189 -0.644168 1.43834 0
M  V30 2567 C 258.435 -1.40603 1.46146 0
M  V30 2568 C 258.768 -1.93997 0.0887717 0
M  V30 2569 O 258.043 -1.72854 -0.891724 0
M  V30 2570 C 258.326 -2.58086 2.51124 0
M  V30 2571 C 258.179 -2.10126 3.97702 0
M  V30 2572 C 259.498 -3.60291 2.52742 0
M  V30 2573 H 256.617 -0.509905 0.532134 0
M  V30 2574 H 259.259 -0.729502 1.75437 0
M  V30 2575 H 257.409 -3.15801 2.26278 0
M  V30 2576 H 259.081 -1.57342 4.33637 0
M  V30 2577 H 257.324 -1.41419 4.10101 0
M  V30 2578 H 257.995 -2.94649 4.66783 0
M  V30 2579 H 260.471 -3.12352 2.7491 0
M  V30 2580 H 259.347 -4.40032 3.28121 0
M  V30 2581 H 259.608 -4.1349 1.56455 0
M  V30 2582 N 258.668 -1.30515 -0.883378 0
M  V30 2583 C 259.914 -1.20617 -1.63778 0
M  V30 2584 C 260.269 0.236469 -1.90941 0
M  V30 2585 O 259.562 1.16596 -1.52039 0
M  V30 2586 C 259.756 -1.96994 -2.98209 0
M  V30 2587 C 259.585 -3.48537 -2.84169 0
M  V30 2588 C 258.355 -4.17893 -2.84067 0
M  V30 2589 C 260.553 -4.43738 -2.60001 0
M  V30 2590 N 258.535 -5.55685 -2.60936 0
M  V30 2591 C 259.906 -5.69105 -2.46007 0
M  V30 2592 C 261.961 -4.33316 -2.45239 0
M  V30 2593 C 260.664 -6.8523 -2.18752 0
M  V30 2594 C 262.69 -5.4921 -2.19369 0
M  V30 2595 C 262.052 -6.73558 -2.06153 0
M  V30 2596 H 258.151 -0.496434 -0.604216 0
M  V30 2597 H 260.735 -1.64544 -1.04083 0
M  V30 2598 H 258.906 -1.55455 -3.55933 0
M  V30 2599 H 260.638 -1.79225 -3.62851 0
M  V30 2600 H 257.393 -3.69739 -2.95956 0
M  V30 2601 H 257.817 -6.28199 -2.52378 0
M  V30 2602 H 262.459 -3.37856 -2.54191 0
M  V30 2603 H 260.177 -7.80729 -2.08537 0
M  V30 2604 H 263.763 -5.43054 -2.08766 0
M  V30 2605 H 262.643 -7.61721 -1.86416 0
M  V30 2606 N 260.146 1.09593 -1.13257 0
M  V30 2607 C 261.376 1.85231 -0.915049 0
M  V30 2608 C 261.784 1.81345 0.539498 0
M  V30 2609 O 261.127 1.20664 1.38513 0
M  V30 2610 C 261.189 3.34275 -1.3229 0
M  V30 2611 C 260.853 3.6191 -2.79052 0
M  V30 2612 C 261.85 3.57777 -3.77216 0
M  V30 2613 C 259.535 3.90309 -3.16171 0
M  V30 2614 C 261.529 3.81652 -5.1051 0
M  V30 2615 C 259.216 4.13839 -4.49644 0
M  V30 2616 C 260.214 4.09502 -5.46623 0
M  V30 2617 O 259.902 4.32426 -6.77689 0
M  V30 2618 H 259.634 0.591997 -0.326367 0
M  V30 2619 H 262.188 1.394 -1.50854 0
M  V30 2620 H 260.418 3.80805 -0.672667 0
M  V30 2621 H 262.107 3.9132 -1.07812 0
M  V30 2622 H 262.873 3.35865 -3.49885 0
M  V30 2623 H 258.752 3.92811 -2.41289 0
M  V30 2624 H 262.296 3.78182 -5.86195 0
M  V30 2625 H 258.193 4.35232 -4.767 0
M  V30 2626 H 258.961 4.49896 -6.83766 0
M  V30 2627 N 261.624 0.925811 1.2754 0
M  V30 2628 C 262.557 0.367836 2.25216 0
M  V30 2629 C 263.535 -0.534738 1.53556 0
M  V30 2630 O 264.719 -0.475672 1.824 0
M  V30 2631 C 261.846 -0.47298 3.35381 0
M  V30 2632 C 260.892 0.365898 4.24928 0
M  V30 2633 S 261.725 1.78025 5.05042 0
M  V30 2634 C 262.881 0.947068 6.18693 0
M  V30 2635 H 263.114 1.19568 2.72196 0
M  V30 2636 H 260.647 0.727867 1.36167 0
M  V30 2637 H 262.605 -0.952242 3.99303 0
M  V30 2638 H 261.266 -1.27533 2.87044 0
M  V30 2639 H 260.459 -0.277582 5.03235 0
M  V30 2640 H 260.061 0.779261 3.65792 0
M  V30 2641 H 262.353 0.182201 6.77255 0
M  V30 2642 H 263.296 1.70309 6.87314 0
M  V30 2643 H 263.704 0.489913 5.6237 0
M  V30 2644 N 263.102 -1.41638 0.69111 0
M  V30 2645 C 264.379 -1.95036 0.148421 0
M  V30 2646 C 264.759 -1.63072 -1.34055 0
M  V30 2647 O 264.107 -0.93538 -2.08478 0
M  V30 2648 C 264.317 -3.46279 0.434951 0
M  V30 2649 C 265.665 -4.23069 0.360275 0
M  V30 2650 O 266.689 -3.54277 0.369613 0
M  V30 2651 O 265.548 -5.45583 0.316534 0
M  V30 2652 H 262.642 -0.826908 0.0123654 0
M  V30 2653 H 265.188 -1.5138 0.766963 0
M  V30 2654 H 263.96 -3.6281 1.46576 0
M  V30 2655 H 263.583 -3.97019 -0.214787 0
M  V30 2656 N 264.58 -0.43555 -1.51462 0
M  V30 2657 C 265.829 0.133007 -2.01261 0
M  V30 2658 C 266.142 1.43942 -1.32439 0
M  V30 2659 O 267.348 2.09081 -1.73198 0
M  V30 2660 C 265.804 0.287581 -3.58749 0
M  V30 2661 C 265.412 -1.00829 -4.36506 0
M  V30 2662 C 267.156 0.810004 -4.167 0
M  V30 2663 C 265.063 -0.819454 -5.85695 0
M  V30 2664 H 263.993 0.0534822 -0.752101 0
M  V30 2665 H 266.644 -0.565038 -1.74584 0
M  V30 2666 H 265.026 1.04859 -3.81865 0
M  V30 2667 H 266.2 -1.77749 -4.25138 0
M  V30 2668 H 264.515 -1.45911 -3.89999 0
M  V30 2669 H 267.112 0.967743 -5.2587 0
M  V30 2670 H 267.455 1.79196 -3.75758 0
M  V30 2671 H 267.988 0.107357 -3.97655 0
M  V30 2672 H 264.727 -1.77374 -6.31046 0
M  V30 2673 H 264.247 -0.0900208 -5.99732 0
M  V30 2674 H 265.926 -0.471949 -6.45276 0
M  V30 2675 N 266.058 1.56714 -0.166846 0
M  V30 2676 C 267.335 1.88412 0.525373 0
M  V30 2677 C 267.715 1.07602 1.81618 0
M  V30 2678 O 267.063 0.168621 2.27877 0
M  V30 2679 C 267.273 3.40363 0.771613 0
M  V30 2680 C 268.621 4.10007 1.1036 0
M  V30 2681 O 269.645 3.45655 0.860304 0
M  V30 2682 O 268.504 5.2369 1.56239 0
M  V30 2683 H 265.598 0.781587 0.270278 0
M  V30 2684 H 268.144 1.68458 -0.204946 0
M  V30 2685 H 266.916 3.91046 -0.141093 0
M  V30 2686 H 266.539 3.65914 1.55541 0
M  V30 2687 N 267.536 -0.106894 1.57237 0
M  V30 2688 C 268.764 -0.826389 1.8968 0
M  V30 2689 C 269.179 -1.72856 0.759353 0
M  V30 2690 O 268.536 -1.80503 -0.269263 0
M  V30 2691 C 268.587 -1.64967 3.21665 0
M  V30 2692 O 268.308 -0.783804 4.31031 0
M  V30 2693 C 269.809 -2.47326 3.67892 0
M  V30 2694 H 267.029 -0.236927 0.627779 0
M  V30 2695 H 269.573 -0.0876593 2.04312 0
M  V30 2696 H 267.728 -2.34103 3.08666 0
M  V30 2697 H 268.142 -1.35284 5.06753 0
M  V30 2698 H 269.616 -3.00604 4.6297 0
M  V30 2699 H 270.093 -3.25247 2.95146 0
M  V30 2700 H 270.699 -1.83411 3.83719 0
M  V30 2701 N 269.014 -1.53014 -0.377408 0
M  V30 2702 C 270.242 -1.72515 -1.14219 0
M  V30 2703 C 270.657 -0.448735 -1.8339 0
M  V30 2704 O 270.014 0.577592 -1.73119 0
M  V30 2705 C 270.065 -2.8826 -2.18148 0
M  V30 2706 O 269.786 -4.10962 -1.51795 0
M  V30 2707 C 271.287 -3.19536 -3.07264 0
M  V30 2708 H 268.507 -0.577301 -0.342001 0
M  V30 2709 H 271.051 -1.99712 -0.439935 0
M  V30 2710 H 269.206 -2.63492 -2.83991 0
M  V30 2711 H 269.62 -4.75693 -2.20945 0
M  V30 2712 H 271.094 -4.03959 -3.76193 0
M  V30 2713 H 271.571 -2.34403 -3.71419 0
M  V30 2714 H 272.177 -3.46186 -2.47053 0
M  V30 2715 N 270.492 0.636531 -1.44174 0
M  V30 2716 C 271.455 1.73063 -1.50273 0
M  V30 2717 C 272.455 1.56113 -0.385397 0
M  V30 2718 O 273.645 1.61707 -0.64781 0
M  V30 2719 C 270.777 3.12096 -1.37145 0
M  V30 2720 H 271.97 1.69031 -2.47727 0
M  V30 2721 H 269.523 0.849706 -1.31186 0
M  V30 2722 H 270.258 3.21728 -0.407636 0
M  V30 2723 H 270.043 3.25805 -2.18159 0
M  V30 2724 H 271.533 3.91846 -1.44382 0
M  V30 2725 N 271.97 1.30982 0.876444 0
M  V30 2726 C 272.918 1.18006 2.00443 0
M  V30 2727 C 273.912 0.0898871 1.69161 0
M  V30 2728 O 275.118 0.251333 1.78237 0
M  V30 2729 H 271.493 0.365196 0.65737 0
M  V30 2730 H 273.464 2.13453 2.0852 0
M  V30 2731 C 272.213 0.897521 3.35916 0
M  V30 2732 H 271.536 1.7285 3.60504 0
M  V30 2733 H 272.976 0.846874 4.15456 0
M  V30 2734 C 271.435 -0.399674 3.34521 0
M  V30 2735 O 271.965 -1.41852 3.7582 0
M  V30 2736 N 270.171 -0.413893 2.87637 0
M  V30 2737 H 269.718 0.41571 2.54224 0
M  V30 2738 H 269.676 -1.28175 2.87086 0
M  V30 2739 N 273.449 -1.08991 1.13837 0
M  V30 2740 C 274.679 -1.84743 0.924859 0
M  V30 2741 C 275.087 -1.81629 -0.529874 0
M  V30 2742 O 274.43 -1.21397 -1.37872 0
M  V30 2743 C 274.492 -3.33568 1.34061 0
M  V30 2744 C 274.156 -3.60425 2.80968 0
M  V30 2745 C 275.153 -3.55771 3.79108 0
M  V30 2746 C 272.838 -3.88627 3.18236 0
M  V30 2747 C 274.832 -3.78939 5.12527 0
M  V30 2748 C 272.519 -4.11449 4.51833 0
M  V30 2749 C 273.517 -4.06598 5.48787 0
M  V30 2750 O 273.205 -4.28826 6.79973 0
M  V30 2751 H 272.937 -0.590258 0.329502 0
M  V30 2752 H 275.491 -1.38598 1.51591 0
M  V30 2753 H 273.721 -3.80442 0.692853 0
M  V30 2754 H 275.41 -3.90743 1.09886 0
M  V30 2755 H 276.176 -3.34005 3.51661 0
M  V30 2756 H 272.055 -3.91526 2.43369 0
M  V30 2757 H 275.599 -3.75068 5.88192 0
M  V30 2758 H 271.496 -4.32698 4.79002 0
M  V30 2759 H 272.264 -4.46264 6.86142 0
M  V30 2760 N 274.927 -0.932562 -1.27047 0
M  V30 2761 C 275.874 -0.434072 -2.26681 0
M  V30 2762 C 276.844 0.501639 -1.58344 0
M  V30 2763 O 278.029 0.419734 -1.86126 0
M  V30 2764 C 275.169 0.30261 -3.43771 0
M  V30 2765 C 274.282 -0.667774 -4.26808 0
M  V30 2766 C 273.417 0.0892393 -5.31125 0
M  V30 2767 C 272.456 -0.873532 -6.05835 0
M  V30 2768 N 271.593 -0.148832 -7.01942 0
M  V30 2769 H 276.433 -1.28868 -2.68695 0
M  V30 2770 H 273.97 -0.646713 -1.32121 0
M  V30 2771 H 275.928 0.746092 -4.10474 0
M  V30 2772 H 274.558 1.12142 -3.02695 0
M  V30 2773 H 273.61 -1.22978 -3.59973 0
M  V30 2774 H 274.922 -1.40337 -4.78651 0
M  V30 2775 H 274.076 0.592409 -6.03801 0
M  V30 2776 H 272.815 0.85777 -4.80097 0
M  V30 2777 H 271.82 -1.38791 -5.31994 0
M  V30 2778 H 273.045 -1.64193 -6.58952 0
M  V30 2779 H 270.991 0.601365 -6.53238 0
M  V30 2780 H 270.908 -0.82391 -7.51497 0
M  V30 2781 H 272.176 0.333527 -7.78786 0
M  V30 2782 N 276.405 1.4127 -0.698611 0
M  V30 2783 C 277.335 2.33447 -0.049629 0
M  V30 2784 C 278.316 1.51982 0.763898 0
M  V30 2785 O 279.501 1.80509 0.716257 0
M  V30 2786 C 276.631 3.35828 0.885267 0
M  V30 2787 C 275.585 4.27627 0.178613 0
M  V30 2788 C 274.911 5.20406 1.22807 0
M  V30 2789 C 276.211 5.13459 -0.956933 0
M  V30 2790 H 277.905 2.87966 -0.81951 0
M  V30 2791 H 275.451 1.38461 -0.395538 0
M  V30 2792 H 277.404 3.9924 1.34854 0
M  V30 2793 H 276.128 2.79666 1.68685 0
M  V30 2794 H 274.787 3.65643 -0.26466 0
M  V30 2795 H 274.435 4.60558 2.02226 0
M  V30 2796 H 274.135 5.82661 0.760239 0
M  V30 2797 H 275.659 5.86695 1.69179 0
M  V30 2798 H 277.073 5.70421 -0.573805 0
M  V30 2799 H 275.47 5.8467 -1.35205 0
M  V30 2800 H 276.54 4.50443 -1.79524 0
M  V30 2801 N 277.883 0.443576 1.51229 0
M  V30 2802 C 279.131 -0.120557 2.0174 0
M  V30 2803 C 279.452 -1.42665 1.32935 0
M  V30 2804 O 278.722 -1.9028 0.465866 0
M  V30 2805 H 277.302 -0.0475426 0.745486 0
M  V30 2806 H 279.964 0.587711 1.85828 0
M  V30 2807 H 279.06 -0.291972 3.10731 0
M  V30 2808 N 279.361 -1.56624 0.175154 0
M  V30 2809 C 280.609 -1.96609 -0.467885 0
M  V30 2810 C 280.93 -1.06238 -1.63519 0
M  V30 2811 O 280.2 -0.129523 -1.95471 0
M  V30 2812 H 278.78 -0.726008 -0.175845 0
M  V30 2813 H 281.442 -1.93195 0.257234 0
M  V30 2814 H 280.538 -3.00989 -0.825342 0
M  V30 2815 N 280.839 0.0985539 -1.57292 0
M  V30 2816 C 281.802 1.10402 -2.00858 0
M  V30 2817 C 282.802 1.33146 -0.901593 0
M  V30 2818 O 283.992 1.29318 -1.16716 0
M  V30 2819 C 281.124 2.45394 -2.36632 0
M  V30 2820 H 282.317 0.729099 -2.90902 0
M  V30 2821 H 279.87 0.343495 -1.52479 0
M  V30 2822 H 280.605 2.87769 -1.49531 0
M  V30 2823 H 280.39 2.30235 -3.17387 0
M  V30 2824 H 281.88 3.17718 -2.71007 0
M  V30 2825 N 282.317 1.53212 0.369288 0
M  V30 2826 C 283.249 1.75668 1.47219 0
M  V30 2827 C 284.262 0.637387 1.49804 0
M  V30 2828 O 285.451 0.913561 1.5335 0
M  V30 2829 C 282.551 1.81818 2.85999 0
M  V30 2830 C 281.724 3.11409 3.07153 0
M  V30 2831 C 280.783 3.08849 4.26026 0
M  V30 2832 O 279.809 3.82659 4.2138 0
M  V30 2833 N 281.011 2.29409 5.33246 0
M  V30 2834 H 283.776 2.70832 1.28337 0
M  V30 2835 H 281.337 1.51944 0.55898 0
M  V30 2836 H 283.329 1.77588 3.63655 0
M  V30 2837 H 281.899 0.939544 2.98146 0
M  V30 2838 H 281.119 3.28971 2.1719 0
M  V30 2839 H 282.407 3.97059 3.18154 0
M  V30 2840 H 281.805 1.68946 5.39883 0
M  V30 2841 H 280.362 2.31001 6.09493 0
M  V30 2842 N 283.795 -0.628877 1.44509 0
M  V30 2843 C 284.727 -1.754 1.47538 0
M  V30 2844 C 285.74 -1.58575 0.368506 0
M  V30 2845 O 286.929 -1.66847 0.634376 0
M  V30 2846 C 284.029 -3.1315 1.29577 0
M  V30 2847 C 283.202 -3.56413 2.53551 0
M  V30 2848 C 282.261 -4.7305 2.30457 0
M  V30 2849 O 281.287 -4.81247 3.03957 0
M  V30 2850 N 282.489 -5.64903 1.3366 0
M  V30 2851 H 285.254 -1.73272 2.44534 0
M  V30 2852 H 282.815 -0.813512 1.39977 0
M  V30 2853 H 284.807 -3.88902 1.11971 0
M  V30 2854 H 283.377 -3.09908 0.409371 0
M  V30 2855 H 282.597 -2.70847 2.86419 0
M  V30 2856 H 283.885 -3.82071 3.36005 0
M  V30 2857 H 283.283 -5.60975 0.729604 0
M  V30 2858 H 281.84 -6.40275 1.22032 0
M  V30 2859 N 285.273 -1.31445 -0.869486 0
M  V30 2860 C 286.223 -1.15731 -1.96444 0
M  V30 2861 C 287.207 -0.0681855 -1.60755 0
M  V30 2862 O 288.399 -0.293154 -1.74555 0
M  V30 2863 C 285.528 -0.867255 -3.32165 0
M  V30 2864 C 284.614 -1.99738 -3.74119 0
M  V30 2865 N 285.005 -3.24447 -3.88031 0
M  V30 2866 C 283.303 -1.89723 -4.03635 0
M  V30 2867 C 284.004 -3.98374 -4.23879 0
M  V30 2868 N 282.98 -3.26547 -4.3459 0
M  V30 2869 H 286.782 -2.10296 -2.05312 0
M  V30 2870 H 284.296 -1.23009 -1.06031 0
M  V30 2871 H 286.293 -0.735668 -4.10358 0
M  V30 2872 H 284.953 0.0701614 -3.24624 0
M  V30 2873 H 285.964 -3.59557 -3.72746 0
M  V30 2874 H 282.641 -1.03449 -4.04481 0
M  V30 2875 H 284.031 -5.05844 -4.42235 0
M  V30 2876 N 286.751 1.08385 -1.14413 0
M  V30 2877 C 288.028 1.77429 -0.823297 0
M  V30 2878 C 288.408 1.9974 0.683163 0
M  V30 2879 O 287.756 1.60739 1.62405 0
M  V30 2880 C 287.966 3.09004 -1.62227 0
M  V30 2881 C 289.314 3.83532 -1.82177 0
M  V30 2882 O 290.338 3.18786 -1.58915 0
M  V30 2883 O 289.197 4.99792 -2.21067 0
M  V30 2884 H 286.291 0.769999 -0.301712 0
M  V30 2885 H 288.837 1.14846 -1.24934 0
M  V30 2886 H 287.609 2.88316 -2.64555 0
M  V30 2887 H 287.232 3.79316 -1.19187 0
M  V30 2888 N 288.23 0.939286 1.26551 0
M  V30 2889 C 289.455 0.602008 1.98471 0
M  V30 2890 C 289.88 -0.815624 1.69497 0
M  V30 2891 O 289.238 -1.54912 0.941905 0
M  V30 2892 C 289.286 0.848407 3.50477 0
M  V30 2893 O 288.39 -0.0804009 4.12322 0
M  V30 2894 H 287.731 0.23049 0.622712 0
M  V30 2895 H 290.261 1.2617 1.61066 0
M  V30 2896 H 290.271 0.768553 4.00696 0
M  V30 2897 H 288.946 1.88171 3.70897 0
M  V30 2898 H 287.523 0.0503508 3.72866 0
M  V30 2899 N 289.708 -1.40897 0.706093 0
M  V30 2900 C 290.954 -2.01352 0.241889 0
M  V30 2901 C 291.287 -1.55832 -1.15888 0
M  V30 2902 O 290.562 -0.774145 -1.7843 0
M  V30 2903 C 290.845 -3.58752 0.311311 0
M  V30 2904 C 290.698 -4.1437 1.74978 0
M  V30 2905 C 292.017 -4.38914 -0.322922 0
M  V30 2906 H 289.136 -0.731562 0.0893687 0
M  V30 2907 H 291.778 -1.67504 0.896802 0
M  V30 2908 H 289.928 -3.87718 -0.246302 0
M  V30 2909 H 291.6 -3.96239 2.36205 0
M  V30 2910 H 289.843 -3.69016 2.28057 0
M  V30 2911 H 290.514 -5.23532 1.74981 0
M  V30 2912 H 292.99 -4.15822 0.152089 0
M  V30 2913 H 291.866 -5.48358 -0.243855 0
M  V30 2914 H 292.127 -4.19176 -1.40513 0
M  V30 2915 N 291.186 -0.45159 -1.50991 0
M  V30 2916 C 292.602 -0.104647 -1.59257 0
M  V30 2917 C 292.802 1.38728 -1.4614 0
M  V30 2918 O 291.858 2.15866 -1.30989 0
M  V30 2919 C 293.171 -0.637468 -2.93865 0
M  V30 2920 C 294.719 -0.599166 -3.07212 0
M  V30 2921 C 295.194 -1.1092 -4.44366 0
M  V30 2922 N 296.685 -1.06778 -4.50725 0
M  V30 2923 C 297.42 -1.43314 -5.55201 0
M  V30 2924 N 296.916 -1.87204 -6.67028 0
M  V30 2925 N 298.709 -1.3504 -5.45638 0
M  V30 2926 H 290.86 -1.42214 -1.57762 0
M  V30 2927 H 293.123 -0.586921 -0.744465 0
M  V30 2928 H 292.829 -1.68187 -3.08879 0
M  V30 2929 H 292.703 -0.0702139 -3.77135 0
M  V30 2930 H 295.09 0.436277 -2.91857 0
M  V30 2931 H 295.171 -1.20299 -2.25747 0
M  V30 2932 H 294.815 -2.14318 -4.60467 0
M  V30 2933 H 294.745 -0.481773 -5.24392 0
M  V30 2934 H 297.236 -0.745643 -3.70471 0
M  V30 2935 H 297.549 -2.13282 -7.42786 0
M  V30 2936 H 295.894 -1.91142 -6.68199 0
M  V30 2937 H 299.085 -1.00607 -4.57161 0
M  V30 2938 H 299.258 -1.63841 -6.26945 0
M  V30 2939 N 292.664 1.56529 -0.183458 0
M  V30 2940 C 293.594 2.21549 0.737456 0
M  V30 2941 C 294.575 1.17489 1.23005 0
M  V30 2942 O 295.76 1.45959 1.281 0
M  V30 2943 C 292.89 2.86575 1.96194 0
M  V30 2944 C 291.844 3.96778 1.60473 0
M  V30 2945 C 291.17 4.48911 2.90487 0
M  V30 2946 C 292.47 5.15767 0.823497 0
M  V30 2947 H 294.164 2.98761 0.195453 0
M  V30 2948 H 291.71 1.43702 0.0925686 0
M  V30 2949 H 293.663 3.30739 2.61131 0
M  V30 2950 H 292.387 2.06749 2.52828 0
M  V30 2951 H 291.046 3.53286 0.978997 0
M  V30 2952 H 290.694 3.65862 3.45186 0
M  V30 2953 H 290.394 5.23265 2.67335 0
M  V30 2954 H 291.918 4.95771 3.56432 0
M  V30 2955 H 293.332 5.56549 1.37571 0
M  V30 2956 H 291.729 5.96114 0.690551 0
M  V30 2957 H 292.799 4.84574 -0.177782 0
M  V30 2958 N 294.142 -0.090211 1.57342 0
M  V30 2959 C 295.419 -0.824761 1.77361 0
M  V30 2960 C 295.799 -1.96698 0.76637 0
M  V30 2961 O 295.147 -2.27586 -0.204179 0
M  V30 2962 C 295.357 -1.31481 3.23286 0
M  V30 2963 C 296.705 -1.75563 3.86604 0
M  V30 2964 O 297.729 -1.41093 3.27065 0
M  V30 2965 O 296.588 -2.39317 4.91314 0
M  V30 2966 H 293.682 -0.393776 0.727234 0
M  V30 2967 H 296.228 -0.0717138 1.69548 0
M  V30 2968 H 295 -0.496671 3.88135 0
M  V30 2969 H 294.623 -2.12973 3.35751 0
M  V30 2970 N 295.62 -1.53406 -0.361157 0
M  V30 2971 C 297.031 -1.61442 -0.937728 0
M  V30 2972 C 297.382 -0.48461 -1.90121 0
M  V30 2973 O 296.507 0.388312 -2.12888 0
M  V30 2974 C 297.102 -2.92624 -1.70753 0
M  V30 2975 C 295.661 -3.02981 -2.23337 0
M  V30 2976 C 294.808 -2.5677 -1.04712 0
M  V30 2977 H 297.759 -1.58083 -0.139816 0
M  V30 2978 H 297.78 -2.80675 -2.56908 0
M  V30 2979 H 297.292 -3.74834 -1.00604 0
M  V30 2980 H 295.393 -2.25368 -2.96715 0
M  V30 2981 H 295.506 -4.0814 -2.50916 0
M  V30 2982 H 293.87 -2.11752 -1.41539 0
M  V30 2983 H 294.653 -3.41402 -0.360539 0
M  V30 2984 N 297.098 0.621204 -1.44841 0
M  V30 2985 C 298.344 1.38073 -1.49357 0
M  V30 2986 C 298.699 1.91973 -0.128115 0
M  V30 2987 O 297.992 1.71311 0.858087 0
M  V30 2988 C 298.186 2.55675 -2.4973 0
M  V30 2989 C 298.015 2.13289 -3.95901 0
M  V30 2990 C 296.785 2.001 -4.63991 0
M  V30 2991 C 298.983 1.7159 -4.84831 0
M  V30 2992 N 296.965 1.51381 -5.94943 0
M  V30 2993 C 298.336 1.34188 -6.05304 0
M  V30 2994 C 300.391 1.59059 -4.7181 0
M  V30 2995 C 299.094 0.855085 -7.14199 0
M  V30 2996 C 301.12 1.11784 -5.8074 0
M  V30 2997 C 300.482 0.753385 -7.0036 0
M  V30 2998 H 296.581 0.499675 -0.601539 0
M  V30 2999 H 299.165 0.711609 -1.8123 0
M  V30 3000 H 297.336 3.20201 -2.19832 0
M  V30 3001 H 299.068 3.22509 -2.4448 0
M  V30 3002 H 295.823 2.20863 -4.18947 0
M  V30 3003 H 296.247 1.29293 -6.64539 0
M  V30 3004 H 300.889 1.85865 -3.79755 0
M  V30 3005 H 298.607 0.574552 -8.06055 0
M  V30 3006 H 302.193 1.02533 -5.72694 0
M  V30 3007 H 301.073 0.393183 -7.83214 0
M  V30 3008 N 298.576 1.31904 0.862503 0
M  V30 3009 C 299.822 1.22197 1.61851 0
M  V30 3010 C 300.155 -0.217641 1.92977 0
M  V30 3011 O 299.43 -1.15264 1.56666 0
M  V30 3012 C 299.713 2.07378 2.94391 0
M  V30 3013 C 299.566 3.59678 2.70096 0
M  V30 3014 C 300.885 1.92891 3.95577 0
M  V30 3015 H 298.004 0.445255 0.587296 0
M  V30 3016 H 300.646 1.6177 0.99651 0
M  V30 3017 H 298.796 1.73758 3.47477 0
M  V30 3018 H 300.468 4.03472 2.23625 0
M  V30 3019 H 298.711 3.82735 2.04197 0
M  V30 3020 H 299.382 4.14595 3.64438 0
M  V30 3021 H 301.858 2.22327 3.51724 0
M  V30 3022 H 300.734 2.54781 4.86187 0
M  V30 3023 H 300.995 0.894315 4.3296 0
M  V30 3024 N 300.054 -1.07777 1.14986 0
M  V30 3025 C 301.301 -1.8029 0.922056 0
M  V30 3026 C 301.629 -1.86531 -0.55105 0
M  V30 3027 O 300.884 -1.34189 -1.42449 0
M  V30 3028 C 301.183 -3.25495 1.47608 0
M  V30 3029 C 300.849 -3.39361 2.96893 0
M  V30 3030 C 299.511 -3.42852 3.37647 0
M  V30 3031 C 301.863 -3.42512 3.92854 0
M  V30 3032 C 299.191 -3.47094 4.73015 0
M  V30 3033 C 301.543 -3.4829 5.28088 0
M  V30 3034 C 300.207 -3.50058 5.68345 0
M  V30 3035 H 299.477 -0.659727 0.337404 0
M  V30 3036 H 302.124 -1.26854 1.43459 0
M  V30 3037 H 300.429 -3.81683 0.88463 0
M  V30 3038 H 302.126 -3.80168 1.27568 0
M  V30 3039 H 298.716 -3.37339 2.64387 0
M  V30 3040 H 302.9 -3.3904 3.62444 0
M  V30 3041 H 298.156 -3.46758 5.03556 0
M  V30 3042 H 302.33 -3.49675 6.02246 0
M  V30 3043 H 299.957 -3.53097 6.73221 0
M  V30 3044 N 301.532 -0.945985 -1.26051 0
M  V30 3045 C 302.465 -0.403619 -2.24602 0
M  V30 3046 C 303.443 0.510241 -1.54387 0
M  V30 3047 O 304.627 0.446593 -1.83133 0
M  V30 3048 C 301.754 0.419564 -3.36091 0
M  V30 3049 C 300.8 -0.433454 -4.24292 0
M  V30 3050 S 301.633 -1.86037 -5.02146 0
M  V30 3051 C 302.789 -1.04538 -6.17108 0
M  V30 3052 H 303.022 -1.23883 -2.7026 0
M  V30 3053 H 300.555 -0.749438 -1.34992 0
M  V30 3054 H 302.513 0.888595 -4.00767 0
M  V30 3055 H 301.174 1.22951 -2.89036 0
M  V30 3056 H 300.367 0.197486 -5.03613 0
M  V30 3057 H 299.969 -0.837357 -3.64506 0
M  V30 3058 H 302.261 -0.289923 -6.76879 0
M  V30 3059 H 303.204 -1.81222 -6.84518 0
M  V30 3060 H 303.612 -0.579319 -5.61519 0
M  V30 3061 N 303.011 1.40521 -0.713556 0
M  V30 3062 C 304.258 2.00923 -0.25219 0
M  V30 3063 C 304.586 1.56571 1.15395 0
M  V30 3064 O 303.841 0.775874 1.79663 0
M  V30 3065 C 304.14 3.56317 -0.278 0
M  V30 3066 C 303.806 4.20246 -1.63415 0
M  V30 3067 C 302.468 4.37422 -2.00538 0
M  V30 3068 C 304.82 4.55923 -2.52554 0
M  V30 3069 C 302.148 4.87558 -3.2635 0
M  V30 3070 C 304.5 5.07458 -3.77716 0
M  V30 3071 C 303.164 5.22843 -4.14959 0
M  V30 3072 H 302.434 0.735231 -0.0922829 0
M  V30 3073 H 305.081 1.68161 -0.916188 0
M  V30 3074 H 303.386 3.88976 0.469567 0
M  V30 3075 H 305.083 4.00883 0.0967819 0
M  V30 3076 H 301.673 4.07263 -1.33546 0
M  V30 3077 H 305.857 4.42291 -2.25149 0
M  V30 3078 H 301.113 4.97654 -3.55176 0
M  V30 3079 H 305.287 5.34041 -4.4696 0
M  V30 3080 H 302.914 5.61454 -5.12516 0
M  V30 3081 N 304.489 0.459591 1.5075 0
M  V30 3082 C 305.714 -0.0996819 2.0716 0
M  V30 3083 C 306.139 -1.33761 1.32249 0
M  V30 3084 O 305.497 -1.77551 0.366786 0
M  V30 3085 C 305.545 -0.378226 3.58611 0
M  V30 3086 O 304.649 -1.46081 3.85661 0
M  V30 3087 H 303.99 0.00791392 0.663953 0
M  V30 3088 H 306.52 0.647329 1.9409 0
M  V30 3089 H 306.53 -0.622135 4.03229 0
M  V30 3090 H 305.205 0.526439 4.12555 0
M  V30 3091 H 303.782 -1.20511 3.5289 0
M  V30 3092 N 305.967 -1.56429 0.191757 0
M  V30 3093 C 306.93 -2.17707 -0.716688 0
M  V30 3094 C 307.93 -1.13061 -1.14341 0
M  V30 3095 O 309.12 -1.38464 -1.05704 0
M  V30 3096 C 306.252 -2.77644 -1.97804 0
M  V30 3097 H 307.445 -2.99342 -0.1829 0
M  V30 3098 H 304.998 -1.56193 -0.0578566 0
M  V30 3099 H 305.733 -1.99799 -2.55443 0
M  V30 3100 H 305.518 -3.54246 -1.68083 0
M  V30 3101 H 307.008 -3.24708 -2.62592 0
M  V30 3102 N 307.445 0.0818655 -1.57387 0
M  V30 3103 C 308.693 0.781368 -1.86384 0
M  V30 3104 C 309.014 1.78618 -0.782342 0
M  V30 3105 O 308.284 1.94976 0.190061 0
M  V30 3106 H 306.864 0.291562 -0.687751 0
M  V30 3107 H 309.526 0.060348 -1.94807 0
M  V30 3108 H 308.622 1.3038 -2.83562 0
M  V30 3109 N 308.923 1.53595 0.353017 0
M  V30 3110 C 310.153 1.74058 1.11299 0
M  V30 3111 C 310.561 0.475205 1.83135 0
M  V30 3112 O 309.904 -0.562344 1.74881 0
M  V30 3113 C 309.966 2.85994 2.17825 0
M  V30 3114 C 309.63 4.25923 1.65647 0
M  V30 3115 C 310.627 5.07829 1.11383 0
M  V30 3116 C 308.312 4.72377 1.7078 0
M  V30 3117 C 310.306 6.34285 0.629439 0
M  V30 3118 C 307.993 5.98808 1.21953 0
M  V30 3119 C 308.991 6.79594 0.681265 0
M  V30 3120 O 308.679 8.03651 0.200248 0
M  V30 3121 H 308.411 0.585327 0.338183 0
M  V30 3122 H 310.965 2.01186 0.413927 0
M  V30 3123 H 309.195 2.54368 2.91262 0
M  V30 3124 H 310.884 2.94515 2.79313 0
M  V30 3125 H 311.65 4.73107 1.06746 0
M  V30 3126 H 307.529 4.0956 2.11617 0
M  V30 3127 H 311.073 6.97288 0.208636 0
M  V30 3128 H 306.97 6.33026 1.26287 0
M  V30 3129 H 307.738 8.1788 0.318416 0
M  V30 3130 N 310.401 -0.613514 1.45168 0
M  V30 3131 C 311.817 -0.933629 1.29443 0
M  V30 3132 C 312.017 -2.00028 0.243101 0
M  V30 3133 O 311.073 -2.49848 -0.364992 0
M  V30 3134 C 312.386 -1.38018 2.67155 0
M  V30 3135 C 313.934 -1.49471 2.75004 0
M  V30 3136 C 314.409 -1.97503 4.13227 0
M  V30 3137 N 315.9 -2.04746 4.15491 0
M  V30 3138 C 316.635 -2.43121 5.19307 0
M  V30 3139 N 316.131 -2.80506 6.33473 0
M  V30 3140 N 317.924 -2.43408 5.06664 0
M  V30 3141 H 310.075 0.0916097 2.12202 0
M  V30 3142 H 312.338 -0.0216655 0.947752 0
M  V30 3143 H 312.044 -0.670625 3.45247 0
M  V30 3144 H 311.918 -2.34784 2.95222 0
M  V30 3145 H 314.305 -2.19519 1.9722 0
M  V30 3146 H 314.386 -0.510342 2.50657 0
M  V30 3147 H 314.03 -1.28045 4.91495 0
M  V30 3148 H 313.96 -2.96843 4.34962 0
M  V30 3149 H 316.451 -1.78468 3.33103 0
M  V30 3150 H 316.764 -3.08652 7.08487 0
M  V30 3151 H 315.109 -2.78216 6.36884 0
M  V30 3152 H 318.3 -2.13604 4.16523 0
M  V30 3153 H 318.473 -2.72989 5.87691 0
M  V30 3154 N 311.879 -1.3236 -0.855495 0
M  V30 3155 C 313.126 -1.22872 -1.60962 0
M  V30 3156 C 313.454 0.209658 -1.93367 0
M  V30 3157 O 312.709 1.16243 -1.57436 0
M  V30 3158 C 313.008 -2.03275 -2.93963 0
M  V30 3159 C 312.674 -3.5264 -2.80991 0
M  V30 3160 C 311.336 -3.93364 -2.7716 0
M  V30 3161 C 313.688 -4.47626 -2.66983 0
M  V30 3162 C 311.016 -5.27319 -2.572 0
M  V30 3163 C 313.368 -5.81723 -2.48558 0
M  V30 3164 C 312.032 -6.2165 -2.4312 0
M  V30 3165 H 311.302 -0.44962 -0.589001 0
M  V30 3166 H 313.949 -1.63777 -0.992442 0
M  V30 3167 H 312.254 -1.55095 -3.59795 0
M  V30 3168 H 313.951 -1.93303 -3.51333 0
M  V30 3169 H 310.541 -3.20295 -2.84797 0
M  V30 3170 H 314.725 -4.17084 -2.68988 0
M  V30 3171 H 309.981 -5.57311 -2.51424 0
M  V30 3172 H 314.155 -6.5494 -2.36699 0
M  V30 3173 H 311.782 -7.25388 -2.27412 0
M  V30 3174 O 313.396 0.992737 -1.27385 0
M  V30 3175 H 314.087 1.61512 -1.06928 0
M  V30 END ATOM
M  V30 BEGIN BOND
M  V30 END BOND
M  V30 END CTAB
M  END
$$$$
