drugbank_target|Q9NQX3 Gephyrin (DB01942; DB03366; DB03766)
 OpenBabel12092120233D

  0  0  0     0  0            999 V3000
M  V30 BEGIN CTAB
M  V30 COUNTS 11242 11343 0 0 0
M  V30 BEGIN ATOM
M  V30 1 H -0.908 1.98254 -0.117106 0
M  V30 2 N 0 1.576 0 0
M  V30 3 C 0.933 2.03868 1.02534 0
M  V30 4 C 1.911 0.928543 1.3348 0
M  V30 5 O 3.095 1.19667 1.45644 0
M  V30 6 C 0.222 2.43627 2.35294 0
M  V30 7 C -0.732 3.65373 2.2001 0
M  V30 8 S 0.101 5.13292 1.52614 0
M  V30 9 C 1.257 5.56322 2.86805 0
M  V30 10 H 1.49 2.90518 0.631377 0
M  V30 11 H -0.977 1.52953 0.210867 0
M  V30 12 H 0.981 2.67203 3.11629 0
M  V30 13 H -0.358 1.57376 2.7183 0
M  V30 14 H -1.165 3.90944 3.18086 0
M  V30 15 H -1.563 3.418 1.51819 0
M  V30 16 H 0.729 5.58782 3.83104 0
M  V30 17 H 1.672 6.56266 2.65933 0
M  V30 18 H 2.08 4.83886 2.90714 0
M  V30 19 N 1.4781 -0.272755 1.55222 0
M  V30 20 C 2.4411 -1.32041 1.87344 0
M  V30 21 C 3.4411 -1.42342 0.74803 0
M  V30 22 O 4.6311 -1.41488 1.0162 0
M  V30 23 C 1.7631 -2.70173 2.07893 0
M  V30 24 H 2.9561 -1.04789 2.80997 0
M  V30 25 H 0.5091 -0.51083 1.47717 0
M  V30 26 H 1.2441 -3.02605 1.16622 0
M  V30 27 H 1.0291 -2.64082 2.89833 0
M  V30 28 H 2.5191 -3.45869 2.34017 0
M  V30 29 N 2.9562 -1.48159 -0.537278 0
M  V30 30 C 4.1842 -1.59454 -1.31841 0
M  V30 31 C 4.5992 -0.252065 -1.8711 0
M  V30 32 O 3.9562 0.757621 -1.66031 0
M  V30 33 C 4.0072 -2.63546 -2.47439 0
M  V30 34 O 3.7282 -3.92583 -1.94449 0
M  V30 35 C 5.2292 -2.85212 -3.39366 0
M  V30 36 H 2.4492 -0.53785 -0.401196 0
M  V30 37 H 4.9932 -1.93932 -0.648891 0
M  V30 38 H 3.1482 -2.31946 -3.1029 0
M  V30 39 H 3.5622 -4.49629 -2.70063 0
M  V30 40 H 5.0362 -3.61863 -4.16844 0
M  V30 41 H 5.5132 -1.93765 -3.94147 0
M  V30 42 H 6.1192 -3.18086 -2.82314 0
M  V30 43 N 4.4343 0.785586 -1.36625 0
M  V30 44 C 5.3443 1.92964 -1.33425 0
M  V30 45 C 6.3603 1.72394 -0.235851 0
M  V30 46 O 7.5363 1.95866 -0.468878 0
M  V30 47 C 4.6013 3.27884 -1.12662 0
M  V30 48 C 3.6623 3.61204 -2.32013 0
M  V30 49 C 2.8953 4.89687 -2.12231 0
M  V30 50 O 3.1183 5.59704 -1.09945 0
M  V30 51 O 2.0523 5.21752 -3.00098 0
M  V30 52 H 5.8783 1.98613 -2.29753 0
M  V30 53 H 3.4633 0.926384 -1.17211 0
M  V30 54 H 5.3453 4.08614 -1.03016 0
M  V30 55 H 4.0203 3.23118 -0.193991 0
M  V30 56 H 2.9273 2.80765 -2.47228 0
M  V30 57 H 4.2603 3.70698 -3.23796 0
M  V30 58 N 5.9124 1.20967 1.01018 0
M  V30 59 C 7.1604 1.02172 1.74371 0
M  V30 60 C 7.4814 -0.446414 1.89821 0
M  V30 61 O 6.7514 -1.32234 1.44537 0
M  V30 62 H 5.3314 0.375066 0.646014 0
M  V30 63 H 7.9934 1.52187 1.21758 0
M  V30 64 H 7.0894 1.48538 2.74487 0
M  V30 65 N 7.3905 -1.2043 1.01659 0
M  V30 66 C 8.3235 -2.21924 0.531521 0
M  V30 67 C 9.3015 -1.57054 -0.421032 0
M  V30 68 O 10.4855 -1.85389 -0.341035 0
M  V30 69 C 7.6125 -3.37942 -0.226496 0
M  V30 70 C 6.6585 -4.21115 0.67561 0
M  V30 71 S 7.4915 -4.90674 2.14475 0
M  V30 72 C 8.6475 -6.10113 1.3969 0
M  V30 73 H 8.8805 -2.62725 1.3915 0
M  V30 74 H 6.4135 -1.30481 0.825479 0
M  V30 75 H 8.3715 -4.05196 -0.657738 0
M  V30 76 H 7.0325 -2.956 -1.06205 0
M  V30 77 H 6.2255 -5.03918 0.091108 0
M  V30 78 H 5.8275 -3.59115 1.04463 0
M  V30 79 H 8.1195 -6.7411 0.676897 0
M  V30 80 H 9.0625 -6.73022 2.20107 0
M  V30 81 H 9.4705 -5.57283 0.899786 0
M  V30 82 N 8.8686 -0.792821 -1.36206 0
M  V30 83 C 10.1176 -0.363353 -1.984 0
M  V30 84 C 10.4306 1.07172 -1.63626 0
M  V30 85 O 11.6366 1.60362 -2.19081 0
M  V30 86 C 10.0926 -0.59872 -3.54885 0
M  V30 87 C 9.7006 -2.04543 -3.9858 0
M  V30 88 C 11.4446 -0.233926 -4.23855 0
M  V30 89 C 9.3516 -2.22727 -5.47856 0
M  V30 90 H 8.2816 -0.13212 -0.742334 0
M  V30 91 H 10.9326 -0.974935 -1.55458 0
M  V30 92 H 9.3146 0.0826222 -3.95914 0
M  V30 93 H 10.4886 -2.76345 -3.68741 0
M  V30 94 H 8.8036 -2.36879 -3.42458 0
M  V30 95 H 11.4006 -0.348027 -5.33566 0
M  V30 96 H 11.7436 0.818351 -4.08177 0
M  V30 97 H 12.2766 -0.868639 -3.882 0
M  V30 98 H 9.0156 -3.2635 -5.68486 0
M  V30 99 H 8.5356 -1.55434 -5.7931 0
M  V30 100 H 10.2146 -2.03607 -6.14128 0
M  V30 101 N 10.3467 1.47872 -0.545128 0
M  V30 102 C 11.2767 2.32661 0.197793 0
M  V30 103 C 12.2577 1.43041 0.920504 0
M  V30 104 O 13.4427 1.71912 0.90333 0
M  V30 105 C 10.5727 3.24569 1.23582 0
M  V30 106 C 9.5267 4.23333 0.630323 0
M  V30 107 C 8.8527 5.0448 1.77211 0
M  V30 108 C 10.1527 5.20704 -0.407974 0
M  V30 109 H 11.8467 2.95024 -0.510045 0
M  V30 110 H 9.3927 1.4187 -0.246731 0
M  V30 111 H 11.3457 3.8272 1.76362 0
M  V30 112 H 10.0697 2.60236 1.97344 0
M  V30 113 H 8.7287 3.6639 0.123922 0
M  V30 114 H 8.3767 4.36561 2.49847 0
M  V30 115 H 8.0767 5.71339 1.37281 0
M  V30 116 H 9.6007 5.65487 2.3034 0
M  V30 117 H 11.0147 5.7329 0.033305 0
M  V30 118 H 9.4117 5.95699 -0.725486 0
M  V30 119 H 10.4817 4.66917 -1.30828 0
M  V30 120 N 11.8248 0.280983 1.55075 0
M  V30 121 C 13.0528 -0.337293 2.04132 0
M  V30 122 C 13.4678 -1.4903 1.15912 0
M  V30 123 O 12.8248 -1.81606 0.180459 0
M  V30 124 C 12.8758 -0.812706 3.52246 0
M  V30 125 O 12.5968 0.294387 4.3711 0
M  V30 126 C 14.0978 -1.4982 4.17216 0
M  V30 127 H 11.3178 -0.0761638 0.666663 0
M  V30 128 H 13.8618 0.414787 2.00249 0
M  V30 129 H 12.0168 -1.51486 3.56554 0
M  V30 130 H 12.4308 -0.0721325 5.2445 0
M  V30 131 H 13.9048 -1.7822 5.22438 0
M  V30 132 H 14.3818 -2.43168 3.65741 0
M  V30 133 H 14.9878 -0.839742 4.16927 0
M  V30 134 N 13.3029 -1.57598 0.00835791 0
M  V30 135 C 14.2509 -2.10078 -0.998508 0
M  V30 136 C 15.2449 -1.02262 -1.35051 0
M  V30 137 O 16.4509 -1.20719 -1.33518 0
M  V30 138 H 12.8259 -0.670903 -0.339696 0
M  V30 139 H 14.7969 -2.93648 -0.530398 0
M  V30 140 C 13.5459 -2.62615 -2.27879 0
M  V30 141 H 12.8689 -3.45213 -2.01662 0
M  V30 142 H 14.3089 -3.03004 -2.96588 0
M  V30 143 C 12.7679 -1.54407 -2.99433 0
M  V30 144 O 13.2979 -0.931812 -3.90743 0
M  V30 145 N 11.5039 -1.2695 -2.61404 0
M  V30 146 H 11.0509 -1.76924 -1.87232 0
M  V30 147 H 11.0089 -0.547704 -3.09593 0
M  V30 148 N 14.781 0.264519 -1.55364 0
M  V30 149 C 15.731 1.32966 -1.85214 0
M  V30 150 C 16.715 1.44306 -0.711653 0
M  V30 151 O 17.907 1.47844 -0.973192 0
M  V30 152 C 15.036 2.68839 -2.13495 0
M  V30 153 C 14.122 2.61575 -3.33825 0
M  V30 154 N 14.513 2.23933 -4.53528 0
M  V30 155 C 12.811 2.92621 -3.36584 0
M  V30 156 C 13.512 2.26868 -5.35636 0
M  V30 157 N 12.488 2.65677 -4.74254 0
M  V30 158 H 16.29 1.02884 -2.75304 0
M  V30 159 H 13.804 0.473157 -1.55354 0
M  V30 160 H 15.801 3.45685 -2.33039 0
M  V30 161 H 14.461 2.99802 -1.24694 0
M  V30 162 H 15.472 1.95769 -4.79474 0
M  V30 163 H 12.149 3.2824 -2.58002 0
M  V30 164 H 13.539 2.00254 -6.41364 0
M  V30 165 N 16.2591 1.48442 0.529413 0
M  V30 166 C 17.5361 1.46978 1.29062 0
M  V30 167 C 17.9161 0.181769 2.10316 0
M  V30 168 O 17.2641 -0.836481 2.12639 0
M  V30 169 C 17.4741 2.7321 2.17157 0
M  V30 170 C 18.8221 3.21562 2.77278 0
M  V30 171 O 19.8461 2.74131 2.27444 0
M  V30 172 O 18.7051 4.04094 3.67927 0
M  V30 173 H 15.7991 0.587003 0.582543 0
M  V30 174 H 18.3451 1.60676 0.546021 0
M  V30 175 H 17.1171 3.58465 1.56903 0
M  V30 176 H 16.7401 2.62235 2.98862 0
M  V30 177 N 17.7372 -0.778329 1.37039 0
M  V30 178 C 18.6872 -1.88142 1.28789 0
M  V30 179 C 19.6712 -1.59923 0.177063 0
M  V30 180 O 20.8632 -1.72165 0.410873 0
M  V30 181 C 17.9922 -3.25518 1.09055 0
M  V30 182 C 17.0782 -3.5971 2.24654 0
M  V30 183 N 17.4692 -3.65131 3.50018 0
M  V30 184 C 15.7672 -3.89837 2.16663 0
M  V30 185 C 16.4682 -3.95882 4.26207 0
M  V30 186 N 15.4442 -4.11441 3.55271 0
M  V30 187 H 19.2462 -1.90575 2.23737 0
M  V30 188 H 16.7602 -0.974435 1.29917 0
M  V30 189 H 18.7572 -4.04423 1.0123 0
M  V30 190 H 17.4172 -3.24353 0.15018 0
M  V30 191 H 18.4282 -3.475 3.84011 0
M  V30 192 H 15.1052 -3.96533 1.30645 0
M  V30 193 H 16.4952 -4.06907 5.34674 0
M  V30 194 N 19.2153 -1.21501 -1.00376 0
M  V30 195 C 20.1473 -0.933174 -2.09343 0
M  V30 196 C 21.1603 0.0840896 -1.62583 0
M  V30 197 O 22.3493 -0.148563 -1.77881 0
M  V30 198 C 19.4493 -0.379869 -3.36764 0
M  V30 199 C 18.6223 -1.45176 -4.12605 0
M  V30 200 C 17.6813 -0.907476 -5.18316 0
M  V30 201 O 16.7073 -1.5912 -5.46507 0
M  V30 202 N 17.9093 0.276649 -5.7984 0
M  V30 203 H 20.6743 -1.87124 -2.34104 0
M  V30 204 H 18.2353 -1.12043 -1.16867 0
M  V30 205 H 20.2273 -0.00131488 -4.047 0
M  V30 206 H 18.7973 0.463048 -3.09151 0
M  V30 207 H 18.0173 -2.00411 -3.39454 0
M  V30 208 H 19.3053 -2.17328 -4.6005 0
M  V30 209 H 18.7033 0.849147 -5.59291 0
M  V30 210 H 17.2603 0.596702 -6.49063 0
M  V30 211 N 20.6934 1.19889 -1.02296 0
M  V30 212 C 21.9424 1.88743 -0.711257 0
M  V30 213 C 22.2554 1.80112 0.762817 0
M  V30 214 O 23.4614 2.44161 1.18733 0
M  V30 215 C 21.9174 3.38525 -1.22185 0
M  V30 216 C 21.5254 3.55727 -2.72328 0
M  V30 217 C 23.2694 4.12893 -0.985864 0
M  V30 218 C 21.1764 4.99369 -3.16835 0
M  V30 219 H 20.1064 0.706885 -0.262353 0
M  V30 220 H 22.7574 1.35586 -1.23648 0
M  V30 221 H 21.1394 3.91044 -0.624571 0
M  V30 222 H 22.3134 3.13564 -3.3766 0
M  V30 223 H 20.6284 2.94739 -2.9414 0
M  V30 224 H 23.2254 5.18813 -1.29374 0
M  V30 225 H 23.5684 4.16228 0.0775055 0
M  V30 226 H 24.1014 3.66494 -1.54684 0
M  V30 227 H 20.8404 5.01193 -4.22476 0
M  V30 228 H 20.3604 5.42317 -2.56228 0
M  V30 229 H 22.0394 5.67988 -3.09837 0
M  V30 230 N 22.1715 0.800033 1.35784 0
M  V30 231 C 23.5875 0.482977 1.52117 0
M  V30 232 C 23.7875 -0.996948 1.75109 0
M  V30 233 O 22.8435 -1.78216 1.78872 0
M  V30 234 C 24.1565 1.32264 2.70049 0
M  V30 235 C 25.7045 1.31742 2.83924 0
M  V30 236 C 26.1795 2.14106 4.04874 0
M  V30 237 N 27.6705 2.11607 4.12039 0
M  V30 238 C 28.4055 2.72099 5.04727 0
M  V30 239 N 27.9015 3.41492 6.02789 0
M  V30 240 N 29.6945 2.61776 4.97423 0
M  V30 241 H 21.8455 1.75856 1.19115 0
M  V30 242 H 24.1085 0.748122 0.582252 0
M  V30 243 H 23.8145 2.37261 2.59616 0
M  V30 244 H 23.6885 0.971303 3.6448 0
M  V30 245 H 26.0755 0.275333 2.93813 0
M  V30 246 H 26.1565 1.70859 1.9037 0
M  V30 247 H 25.8005 3.18351 3.95746 0
M  V30 248 H 25.7305 1.72353 4.97596 0
M  V30 249 H 28.2215 1.61112 3.41835 0
M  V30 250 H 28.5345 3.84953 6.70098 0
M  V30 251 H 26.8795 3.45596 6.02983 0
M  V30 252 H 30.0705 2.07157 4.19766 0
M  V30 253 H 30.2435 3.0921 5.69468 0
M  V30 254 N 23.6496 -1.47581 0.552962 0
M  V30 255 C 24.8956 -2.02782 0.0273648 0
M  V30 256 C 25.2286 -1.42687 -1.31734 0
M  V30 257 O 24.5036 -0.580897 -1.85623 0
M  V30 258 C 24.7866 -3.60031 -0.0702371 0
M  V30 259 C 24.6396 -4.30566 1.30126 0
M  V30 260 C 25.9586 -4.33028 -0.785771 0
M  V30 261 H 23.0776 -0.736912 0.0114185 0
M  V30 262 H 25.7196 -1.76056 0.714432 0
M  V30 263 H 23.8696 -3.82932 -0.655382 0
M  V30 264 H 25.5416 -4.19018 1.92929 0
M  V30 265 H 23.7846 -3.91086 1.87709 0
M  V30 266 H 24.4556 -5.39114 1.18573 0
M  V30 267 H 26.9316 -4.15095 -0.288982 0
M  V30 268 H 25.8076 -5.42695 -0.823013 0
M  V30 269 H 26.0686 -4.01945 -1.841 0
M  V30 270 N 25.1277 -0.289203 -1.54924 0
M  V30 271 C 26.3757 0.322879 -1.99504 0
M  V30 272 C 26.6967 1.55313 -1.1791 0
M  V30 273 O 25.9667 1.94001 -0.272097 0
M  V30 274 H 24.5467 0.122291 -0.736922 0
M  V30 275 H 27.2087 -0.397802 -1.90797 0
M  V30 276 H 26.3047 0.603061 -3.06218 0
M  V30 277 N 26.6058 1.57591 -0.0167156 0
M  V30 278 C 27.8518 1.91567 0.665582 0
M  V30 279 C 28.1848 0.892298 1.72487 0
M  V30 280 O 27.4598 -0.0867127 1.94307 0
M  V30 281 C 27.7428 3.36069 1.29342 0
M  V30 282 C 27.5958 4.49135 0.244541 0
M  V30 283 C 28.9148 3.803 2.21495 0
M  V30 284 H 26.0338 0.69666 0.240488 0
M  V30 285 H 28.6758 1.89866 -0.0714356 0
M  V30 286 H 26.8258 3.3765 1.92158 0
M  V30 287 H 28.4978 4.59689 -0.385228 0
M  V30 288 H 26.7408 4.3165 -0.431379 0
M  V30 289 H 27.4118 5.47242 0.723207 0
M  V30 290 H 29.8878 3.80377 1.68678 0
M  V30 291 H 28.7638 4.82127 2.62382 0
M  V30 292 H 29.0248 3.15104 3.101 0
M  V30 293 N 28.0839 -0.256276 1.55502 0
M  V30 294 C 29.0139 -1.32102 1.92539 0
M  V30 295 C 29.9949 -1.50684 0.789194 0
M  V30 296 O 31.1799 -1.63449 1.04872 0
M  V30 297 C 28.3099 -2.67752 2.21192 0
M  V30 298 C 27.2639 -2.63878 3.36975 0
M  V30 299 C 26.5899 -4.03236 3.51147 0
M  V30 300 C 27.8899 -2.21682 4.72921 0
M  V30 301 H 29.5839 -1.01351 2.81724 0
M  V30 302 H 27.1299 -0.486105 1.35547 0
M  V30 303 H 29.0829 -3.42365 2.45691 0
M  V30 304 H 27.8069 -3.0012 1.28824 0
M  V30 305 H 26.4659 -1.91722 3.12471 0
M  V30 306 H 26.1139 -4.32854 2.56216 0
M  V30 307 H 25.8139 -4.01535 4.29003 0
M  V30 308 H 27.3379 -4.79563 3.77957 0
M  V30 309 H 28.7519 -2.86023 4.96854 0
M  V30 310 H 27.1489 -2.3111 5.53812 0
M  V30 311 H 28.2189 -1.16833 4.70615 0
M  V30 312 N 29.562 -1.4872 -0.521534 0
M  V30 313 C 30.79 -1.60843 -1.30142 0
M  V30 314 C 31.205 -0.271897 -1.86832 0
M  V30 315 O 30.562 0.739969 -1.66825 0
M  V30 316 C 30.613 -2.66155 -2.4463 0
M  V30 317 O 30.334 -3.94623 -1.90275 0
M  V30 318 C 31.835 -2.88795 -3.36322 0
M  V30 319 H 29.055 -0.542075 -0.395468 0
M  V30 320 H 31.599 -1.94609 -0.628285 0
M  V30 321 H 29.754 -2.35224 -3.07812 0
M  V30 322 H 30.168 -4.52468 -2.65279 0
M  V30 323 H 31.642 -3.66264 -4.12983 0
M  V30 324 H 32.119 -1.97934 -3.9207 0
M  V30 325 H 32.725 -3.21063 -2.78924 0
M  V30 326 N 31.0401 0.771051 -1.3745 0
M  V30 327 C 32.2861 1.5319 -1.32894 0
M  V30 328 C 32.6191 1.94008 0.0862511 0
M  V30 329 O 31.8941 1.64124 1.04373 0
M  V30 330 C 32.1771 2.79648 -2.26868 0
M  V30 331 C 32.0301 2.45079 -3.77169 0
M  V30 332 C 33.3491 3.81583 -2.19277 0
M  V30 333 H 30.4681 0.555744 -0.484064 0
M  V30 334 H 33.1101 0.884492 -1.68157 0
M  V30 335 H 31.2601 3.34891 -1.96926 0
M  V30 336 H 32.9321 1.95745 -4.1771 0
M  V30 337 H 31.1751 1.77767 -3.95704 0
M  V30 338 H 31.8461 3.35478 -4.38359 0
M  V30 339 H 34.3221 3.35835 -2.45671 0
M  V30 340 H 33.1981 4.67787 -2.87171 0
M  V30 341 H 33.4591 4.25897 -1.18592 0
M  V30 342 N 32.5182 1.22032 0.997298 0
M  V30 343 C 33.7432 1.06921 1.77715 0
M  V30 344 C 34.1682 -0.376226 1.84299 0
M  V30 345 O 33.5262 -1.27165 1.29223 0
M  V30 346 C 33.5742 1.67996 3.19076 0
M  V30 347 O 32.6782 0.930653 4.01762 0
M  V30 348 H 32.0192 0.375814 0.547412 0
M  V30 349 H 34.5492 1.61737 1.25309 0
M  V30 350 H 34.5592 1.72538 3.69723 0
M  V30 351 H 33.2342 2.73182 3.13599 0
M  V30 352 H 31.8112 0.960917 3.60307 0
M  V30 353 N 33.9963 -1.19345 1.0293 0
M  V30 354 C 35.2733 -1.84811 0.640642 0
M  V30 355 C 35.6533 -1.91855 -0.88062 0
M  V30 356 O 35.0013 -1.43587 -1.7775 0
M  V30 357 C 35.2113 -3.23755 1.30321 0
M  V30 358 C 36.5593 -3.99912 1.42673 0
M  V30 359 O 37.5833 -3.33155 1.26041 0
M  V30 360 O 36.4423 -5.19494 1.6967 0
M  V30 361 H 33.5363 -0.796443 0.222726 0
M  V30 362 H 36.0823 -1.26831 1.12748 0
M  V30 363 H 34.8543 -3.13466 2.34211 0
M  V30 364 H 34.4773 -3.89381 0.804261 0
M  V30 365 N 35.4744 -0.807222 -1.35358 0
M  V30 366 C 36.6994 -0.399309 -2.0352 0
M  V30 367 C 37.1244 0.981986 -1.60433 0
M  V30 368 O 36.4824 1.63601 -0.781299 0
M  V30 369 C 36.5304 -0.491552 -3.57234 0
M  V30 370 O 35.6344 0.494754 -4.09421 0
M  V30 371 H 34.9754 -0.166682 -0.642739 0
M  V30 372 H 37.5054 -1.09328 -1.72941 0
M  V30 373 H 37.5154 -0.361588 -4.06395 0
M  V30 374 H 36.1904 -1.49907 -3.87944 0
M  V30 375 H 34.7674 0.324977 -3.71481 0
M  V30 376 N 36.9525 1.47285 -0.560781 0
M  V30 377 C 38.1925 2.0436 -0.0404627 0
M  V30 378 C 38.5565 1.42534 1.28639 0
M  V30 379 O 39.7575 1.90677 1.89462 0
M  V30 380 C 38.0285 3.57369 0.0471856 0
M  V30 381 S 39.5875 4.3579 0.513109 0
M  V30 382 H 36.4055 0.710492 -0.0268674 0
M  V30 383 H 39.0075 1.80611 -0.748323 0
M  V30 384 H 37.7115 3.9989 -0.922817 0
M  V30 385 H 37.2425 3.8562 0.778491 0
M  V30 386 H 39.2575 4.63476 1.77212 0
M  V30 387 N 38.4306 0.297415 1.54768 0
M  V30 388 C 39.6776 -0.312913 2.00068 0
M  V30 389 C 40.0056 -1.54171 1.18582 0
M  V30 390 O 39.2606 -1.94108 0.249133 0
M  V30 391 C 39.5596 -0.717561 3.50123 0
M  V30 392 C 39.2256 0.409095 4.4904 0
M  V30 393 C 37.8876 0.718399 4.75807 0
M  V30 394 C 40.2396 1.16717 5.07963 0
M  V30 395 C 37.5676 1.78896 5.5876 0
M  V30 396 C 39.9196 2.22762 5.92081 0
M  V30 397 C 38.5836 2.54303 6.1716 0
M  V30 398 H 37.8536 -0.114503 0.7321 0
M  V30 399 H 40.5006 0.415767 1.86932 0
M  V30 400 H 38.8056 -1.52627 3.60849 0
M  V30 401 H 40.5026 -1.20091 3.82595 0
M  V30 402 H 37.0926 0.157918 4.28309 0
M  V30 403 H 41.2766 0.941466 4.87289 0
M  V30 404 H 36.5326 2.0381 5.7643 0
M  V30 405 H 40.7066 2.81962 6.36765 0
M  V30 406 H 38.3336 3.3739 6.81229 0
M  V30 407 N 39.9087 -1.5758 0.0250728 0
M  V30 408 C 41.3247 -1.56124 -0.331282 0
M  V30 409 C 41.5247 -1.03029 -1.73169 0
M  V30 410 O 40.5807 -0.675215 -2.43305 0
M  V30 411 C 41.8937 -3.00139 -0.183584 0
M  V30 412 C 43.4417 -3.11946 -0.256654 0
M  V30 413 C 43.9167 -4.57793 -0.137792 0
M  V30 414 N 45.4077 -4.6279 -0.194904 0
M  V30 415 C 46.1427 -5.7326 -0.126655 0
M  V30 416 N 45.6387 -6.928 -0.00755288 0
M  V30 417 N 47.4317 -5.61811 -0.180348 0
M  V30 418 H 39.5827 -1.90424 0.94087 0
M  V30 419 H 41.8457 -0.875761 0.362968 0
M  V30 420 H 41.5517 -3.4292 0.780927 0
M  V30 421 H 41.4257 -3.64899 -0.955448 0
M  V30 422 H 43.8127 -2.69079 -1.21162 0
M  V30 423 H 43.8937 -2.49915 0.545517 0
M  V30 424 H 43.5377 -5.01339 0.813739 0
M  V30 425 H 43.4677 -5.17798 -0.958775 0
M  V30 426 H 45.9587 -3.76807 -0.287267 0
M  V30 427 H 46.2717 -7.72791 0.0379428 0
M  V30 428 H 44.6167 -6.94995 0.0271731 0
M  V30 429 H 47.8077 -4.6731 -0.271767 0
M  V30 430 H 47.9807 -6.47882 -0.123697 0
M  V30 431 N 41.3868 0.248026 -1.55636 0
M  V30 432 C 42.3348 1.32683 -1.91045 0
M  V30 433 C 43.3288 1.49883 -0.789401 0
M  V30 434 O 44.5348 1.51371 -0.974007 0
M  V30 435 H 40.9098 0.444272 -0.606734 0
M  V30 436 H 42.8808 1.00085 -2.81115 0
M  V30 437 C 41.6298 2.6755 -2.22064 0
M  V30 438 H 40.9528 2.55114 -3.07826 0
M  V30 439 H 42.3928 3.41912 -2.50743 0
M  V30 440 C 40.8518 3.20556 -1.0366 0
M  V30 441 O 41.3818 4.00695 -0.284016 0
M  V30 442 N 39.5878 2.78568 -0.82753 0
M  V30 443 H 39.1348 2.1351 -1.44123 0
M  V30 444 H 39.0928 3.14378 -0.0369803 0
M  V30 445 N 42.8649 1.48995 0.513639 0
M  V30 446 C 43.7949 1.67636 1.62544 0
M  V30 447 C 44.7759 0.525087 1.61793 0
M  V30 448 O 45.9609 0.759502 1.78732 0
M  V30 449 C 43.0909 1.73114 3.01079 0
M  V30 450 C 42.0449 2.87905 3.16693 0
M  V30 451 C 41.3709 2.78486 4.56453 0
M  V30 452 C 42.6709 4.29005 2.97913 0
M  V30 453 H 44.3649 2.60716 1.47198 0
M  V30 454 H 41.9109 1.25465 0.706714 0
M  V30 455 H 43.8639 1.84742 3.78746 0
M  V30 456 H 42.5879 0.766241 3.17484 0
M  V30 457 H 41.2469 2.75859 2.41448 0
M  V30 458 H 40.8949 1.7993 4.69717 0
M  V30 459 H 40.5949 3.55523 4.67843 0
M  V30 460 H 42.1189 2.92104 5.36197 0
M  V30 461 H 43.5329 4.41798 3.65359 0
M  V30 462 H 41.9299 5.07166 3.20785 0
M  V30 463 H 42.9999 4.44329 1.94165 0
M  V30 464 N 44.343 -0.763751 1.37857 0
M  V30 465 C 45.306 -1.85889 1.34081 0
M  V30 466 C 46.306 -1.58949 0.243277 0
M  V30 467 O 47.496 -1.66882 0.499589 0
M  V30 468 C 44.628 -3.23176 1.08489 0
M  V30 469 H 45.821 -1.90648 2.31502 0
M  V30 470 H 43.374 -0.964367 1.23003 0
M  V30 471 H 44.109 -3.24091 0.116318 0
M  V30 472 H 43.894 -3.44124 1.8794 0
M  V30 473 H 45.384 -4.03254 1.08517 0
M  V30 474 N 45.8211 -1.22559 -0.990812 0
M  V30 475 C 46.7311 -1.01394 -2.11557 0
M  V30 476 C 47.7471 0.0383962 -1.73958 0
M  V30 477 O 48.9231 -0.154787 -2.00804 0
M  V30 478 C 45.9881 -0.596569 -3.41529 0
M  V30 479 C 45.0491 -1.72276 -3.93217 0
M  V30 480 C 44.2821 -1.32521 -5.16985 0
M  V30 481 O 44.5051 -0.204909 -5.70032 0
M  V30 482 O 43.4391 -2.14247 -5.62478 0
M  V30 483 H 47.2651 -1.95633 -2.32296 0
M  V30 484 H 44.8501 -1.01172 -1.0993 0
M  V30 485 H 46.7321 -0.374263 -4.19735 0
M  V30 486 H 45.4071 0.316939 -3.22145 0
M  V30 487 H 44.3141 -1.99961 -3.16174 0
M  V30 488 H 45.6471 -2.61421 -4.17037 0
M  V30 489 N 47.2992 1.18797 -1.03562 0
M  V30 490 C 48.5762 1.84469 -0.650434 0
M  V30 491 C 48.9562 1.92319 0.870433 0
M  V30 492 O 48.3042 1.44528 1.76986 0
M  V30 493 C 48.5142 3.2306 -1.32036 0
M  V30 494 C 49.8622 3.9915 -1.44792 0
M  V30 495 O 50.8862 3.32481 -1.27806 0
M  V30 496 O 49.7452 5.18587 -1.72423 0
M  V30 497 H 46.8392 0.795251 -0.226946 0
M  V30 498 H 49.3852 1.26231 -1.13419 0
M  V30 499 H 48.1572 3.1222 -2.3587 0
M  V30 500 H 47.7802 3.88949 -0.8249 0
M  V30 501 N 48.7773 0.814389 1.34928 0
M  V30 502 C 50.1933 0.499084 1.51596 0
M  V30 503 C 50.3933 -0.978319 1.76157 0
M  V30 504 O 49.4493 -1.76309 1.80752 0
M  V30 505 C 50.7623 1.35121 2.68631 0
M  V30 506 C 52.3103 1.34746 2.82511 0
M  V30 507 C 52.7853 2.18388 4.0258 0
M  V30 508 N 54.2763 2.15966 4.09772 0
M  V30 509 C 55.0113 2.77437 5.01813 0
M  V30 510 N 54.5073 3.47866 5.99134 0
M  V30 511 N 56.3003 2.67037 4.94619 0
M  V30 512 H 48.4513 1.7711 1.17243 0
M  V30 513 H 50.7143 0.754256 0.574284 0
M  V30 514 H 50.4203 2.40001 2.57085 0
M  V30 515 H 50.2943 1.00991 3.63429 0
M  V30 516 H 52.6813 0.30648 2.93504 0
M  V30 517 H 52.7623 1.72869 1.88547 0
M  V30 518 H 52.4063 3.2253 3.92347 0
M  V30 519 H 52.3363 1.77621 4.9574 0
M  V30 520 H 54.8273 1.64729 3.40107 0
M  V30 521 H 55.1403 3.92038 6.65977 0
M  V30 522 H 53.4853 3.51972 5.99284 0
M  V30 523 H 56.6763 2.11597 4.17546 0
M  V30 524 H 56.8493 3.15232 5.66156 0
M  V30 525 N 50.2554 -1.46986 0.568584 0
M  V30 526 C 51.4804 -2.07335 0.0520528 0
M  V30 527 C 51.9054 -1.41675 -1.23733 0
M  V30 528 O 51.2634 -0.495623 -1.74394 0
M  V30 529 C 51.3114 -3.60417 -0.11501 0
M  V30 530 O 50.4154 -3.95309 -1.17492 0
M  V30 531 H 49.7564 -0.661597 0.0564385 0
M  V30 532 H 52.2864 -1.88837 0.787507 0
M  V30 533 H 52.2964 -4.06698 -0.325644 0
M  V30 534 H 50.9714 -4.07601 0.826675 0
M  V30 535 H 49.5484 -3.60757 -0.943869 0
M  V30 536 N 51.7335 -0.305618 -1.54608 0
M  V30 537 C 52.9815 0.301701 -1.99835 0
M  V30 538 C 53.3025 1.54054 -1.19551 0
M  V30 539 O 52.5725 1.93702 -0.292658 0
M  V30 540 H 51.1525 0.114468 -0.738178 0
M  V30 541 H 53.8145 -0.418016 -1.90364 0
M  V30 542 H 52.9105 0.570548 -3.06841 0
M  V30 543 N 53.2116 1.57565 -0.0334293 0
M  V30 544 C 54.4606 1.91155 0.643639 0
M  V30 545 C 54.7736 0.91192 1.73042 0
M  V30 546 O 55.9796 1.13923 2.46442 0
M  V30 547 C 54.4356 3.39443 1.1961 0
M  V30 548 C 54.0436 4.47774 0.142381 0
M  V30 549 C 55.7876 3.82094 1.84944 0
M  V30 550 C 53.6946 5.87162 0.706727 0
M  V30 551 H 52.6246 0.713368 0.244176 0
M  V30 552 H 55.2756 1.8323 -0.0994323 0
M  V30 553 H 53.6576 3.42313 1.99092 0
M  V30 554 H 54.8316 4.56469 -0.630296 0
M  V30 555 H 53.1466 4.14352 -0.412446 0
M  V30 556 H 55.7436 4.83591 2.2813 0
M  V30 557 H 56.0866 3.17386 2.69392 0
M  V30 558 H 56.6196 3.81665 1.12145 0
M  V30 559 H 53.3586 6.55424 -0.0997178 0
M  V30 560 H 52.8786 5.82064 1.44779 0
M  V30 561 H 54.5576 6.35866 1.19514 0
M  V30 562 N 54.6897 -0.239769 1.55765 0
M  V30 563 C 55.6377 -1.31668 1.91745 0
M  V30 564 C 56.6317 -1.49462 0.797338 0
M  V30 565 O 57.8377 -1.50852 0.982021 0
M  V30 566 H 54.2127 -0.441048 0.609082 0
M  V30 567 H 56.1837 -0.985923 2.81642 0
M  V30 568 C 54.9327 -2.66368 2.2348 0
M  V30 569 H 54.2557 -2.53478 3.09175 0
M  V30 570 H 55.6957 -3.40578 2.52553 0
M  V30 571 C 54.1547 -3.20002 1.05359 0
M  V30 572 O 54.6847 -4.00538 0.305261 0
M  V30 573 N 52.8907 -2.78126 0.842292 0
M  V30 574 H 52.4377 -2.12742 1.45253 0
M  V30 575 H 52.3957 -3.14354 0.053652 0
M  V30 576 N 56.1678 -1.49265 -0.50573 0
M  V30 577 C 57.0978 -1.68495 -1.61653 0
M  V30 578 C 58.0788 -0.53366 -1.61512 0
M  V30 579 O 59.2638 -0.76897 -1.78327 0
M  V30 580 C 56.3938 -1.74709 -3.00157 0
M  V30 581 C 55.3478 -2.89581 -3.15162 0
M  V30 582 C 54.6738 -2.80903 -4.5497 0
M  V30 583 C 55.9738 -4.30578 -2.95634 0
M  V30 584 H 57.6678 -2.61493 -1.45814 0
M  V30 585 H 55.2138 -1.25838 -0.70005 0
M  V30 586 H 57.1668 -1.86748 -3.77761 0
M  V30 587 H 55.8908 -0.783067 -3.17074 0
M  V30 588 H 54.5498 -2.77136 -2.39982 0
M  V30 589 H 54.1978 -1.82419 -4.68756 0
M  V30 590 H 53.8978 -3.57999 -4.65951 0
M  V30 591 H 55.4218 -2.94944 -5.34641 0
M  V30 592 H 56.8358 -4.4373 -3.63011 0
M  V30 593 H 55.2328 -5.0886 -3.18091 0
M  V30 594 H 56.3028 -4.45352 -1.91806 0
M  V30 595 N 57.6459 0.756429 -1.3826 0
M  V30 596 C 58.5929 1.87011 -1.35261 0
M  V30 597 C 59.5629 1.64695 -0.215616 0
M  V30 598 O 60.7479 1.864 -0.407399 0
M  V30 599 C 57.8879 3.24275 -1.18068 0
M  V30 600 C 57.0009 3.58442 -2.41129 0
M  V30 601 C 56.1359 4.84994 -2.16689 0
M  V30 602 C 55.1749 5.11939 -3.35537 0
M  V30 603 N 54.3119 6.29685 -3.10549 0
M  V30 604 H 59.1519 1.8891 -2.30472 0
M  V30 605 H 56.6889 0.923373 -1.14509 0
M  V30 606 H 58.6469 4.03479 -1.06116 0
M  V30 607 H 57.2769 3.21711 -0.264973 0
M  V30 608 H 56.3289 2.74103 -2.63764 0
M  V30 609 H 57.6409 3.74283 -3.29717 0
M  V30 610 H 56.7949 5.72135 -2.01857 0
M  V30 611 H 55.5339 4.71286 -1.25462 0
M  V30 612 H 54.5389 4.23268 -3.50891 0
M  V30 613 H 55.7639 5.27546 -4.27635 0
M  V30 614 H 53.7099 6.17306 -2.21967 0
M  V30 615 H 53.6269 6.46014 -3.92686 0
M  V30 616 H 54.8949 7.19722 -2.99367 0
M  V30 617 N 59.124 1.23083 0.984299 0
M  V30 618 C 60.401 0.9689 1.69917 0
M  V30 619 C 60.781 -0.513604 2.04757 0
M  V30 620 O 60.129 -1.48383 1.73767 0
M  V30 621 C 60.339 1.87518 2.94343 0
M  V30 622 C 61.687 2.13636 3.6694 0
M  V30 623 O 62.711 1.85036 3.04368 0
M  V30 624 O 61.57 2.62119 4.79537 0
M  V30 625 H 58.664 0.365095 0.742048 0
M  V30 626 H 61.21 1.34107 1.03987 0
M  V30 627 H 59.982 2.87756 2.65164 0
M  V30 628 H 59.605 1.50514 3.6801 0
M  V30 629 N 60.6021 -1.18246 1.0419 0
M  V30 630 C 61.5321 -2.24127 0.654914 0
M  V30 631 C 62.5131 -1.66617 -0.342451 0
M  V30 632 O 63.6981 -1.92924 -0.222277 0
M  V30 633 C 60.8281 -3.47295 0.0183757 0
M  V30 634 C 59.7821 -4.17563 0.939414 0
M  V30 635 C 59.1081 -5.34438 0.167286 0
M  V30 636 C 60.4081 -4.70917 2.25908 0
M  V30 637 H 62.1021 -2.56753 1.54007 0
M  V30 638 H 59.6481 -1.23414 0.74195 0
M  V30 639 H 61.6011 -4.20572 -0.264082 0
M  V30 640 H 60.3251 -3.13907 -0.901664 0
M  V30 641 H 58.9841 -3.46186 1.20628 0
M  V30 642 H 58.6321 -4.97298 -0.7552 0
M  V30 643 H 58.3321 -5.82388 0.780901 0
M  V30 644 H 59.8561 -6.10504 -0.108125 0
M  V30 645 H 61.2701 -5.35882 2.03724 0
M  V30 646 H 59.6671 -5.29406 2.82577 0
M  V30 647 H 60.7371 -3.88272 2.9047 0
M  V30 648 N 62.0802 -0.821533 -1.34494 0
M  V30 649 C 63.3262 -0.409552 -1.98622 0
M  V30 650 C 63.6592 1.0244 -1.64984 0
M  V30 651 O 62.9342 1.71325 -0.920758 0
M  V30 652 C 63.2172 -0.610458 -3.54888 0
M  V30 653 C 63.0702 -2.09043 -3.98273 0
M  V30 654 C 64.3892 -0.0455379 -4.40076 0
M  V30 655 H 61.5082 -0.15028 -0.721516 0
M  V30 656 H 64.1502 -1.03384 -1.59411 0
M  V30 657 H 62.3002 -0.079044 -3.8842 0
M  V30 658 H 63.9722 -2.68537 -3.75081 0
M  V30 659 H 62.2152 -2.58139 -3.48635 0
M  V30 660 H 62.8862 -2.18182 -5.07051 0
M  V30 661 H 65.3622 -0.499557 -4.1309 0
M  V30 662 H 64.2382 -0.215922 -5.48475 0
M  V30 663 H 64.4992 1.04939 -4.29465 0
M  V30 664 N 63.5583 1.46682 -0.576371 0
M  V30 665 C 64.4903 2.28341 0.198231 0
M  V30 666 C 65.5033 1.38141 0.861453 0
M  V30 667 O 66.6923 1.62797 0.732082 0
M  V30 668 C 63.7923 3.12986 1.29972 0
M  V30 669 C 62.9653 4.31271 0.729639 0
M  V30 670 C 62.0243 4.97363 1.71803 0
M  V30 671 O 61.0503 5.55156 1.25658 0
M  V30 672 N 62.2523 4.93796 3.05198 0
M  V30 673 H 65.0173 2.9546 -0.502324 0
M  V30 674 H 62.5783 1.56525 -0.413715 0
M  V30 675 H 64.5703 3.54066 1.96008 0
M  V30 676 H 63.1403 2.47984 1.90323 0
M  V30 677 H 62.3603 3.94052 -0.108012 0
M  V30 678 H 63.6483 5.07739 0.328438 0
M  V30 679 H 63.0463 4.48077 3.45317 0
M  V30 680 H 61.6033 5.38837 3.6674 0
M  V30 681 N 65.0364 0.313813 1.54444 0
M  V30 682 C 66.3134 -0.345447 1.92525 0
M  V30 683 C 66.6934 -1.70667 1.24242 0
M  V30 684 O 66.0414 -2.25273 0.382654 0
M  V30 685 C 66.2514 -0.44737 3.46121 0
M  V30 686 C 67.5994 -0.712238 4.18584 0
M  V30 687 O 68.6234 -0.530678 3.52225 0
M  V30 688 O 67.4824 -1.06183 5.36085 0
M  V30 689 H 64.5764 -0.195407 0.803583 0
M  V30 690 H 67.1224 0.362813 1.65776 0
M  V30 691 H 65.8944 0.509043 3.87975 0
M  V30 692 H 65.5174 -1.20359 3.78945 0
M  V30 693 N 66.5145 -1.57545 0.0417849 0
M  V30 694 C 67.9255 -1.80011 -0.495259 0
M  V30 695 C 68.2765 -0.953199 -1.71489 0
M  V30 696 O 67.4015 -0.167138 -2.15754 0
M  V30 697 C 67.9965 -3.26482 -0.905265 0
M  V30 698 C 66.5555 -3.499 -1.38734 0
M  V30 699 C 65.7025 -2.74979 -0.358056 0
M  V30 700 H 68.6535 -1.56425 0.267736 0
M  V30 701 H 68.6745 -3.36887 -1.76882 0
M  V30 702 H 68.1865 -3.88096 -0.017401 0
M  V30 703 H 66.2875 -2.93553 -2.29471 0
M  V30 704 H 66.4005 -4.58615 -1.38598 0
M  V30 705 H 64.7645 -2.40834 -0.828912 0
M  V30 706 H 65.5475 -3.39315 0.521561 0
M  V30 707 N 67.9926 0.231505 -1.5589 0
M  V30 708 C 69.2176 0.978689 -1.82856 0
M  V30 709 C 69.6426 1.77559 -0.620846 0
M  V30 710 O 69.0006 1.76119 0.430305 0
M  V30 711 C 69.0486 1.87997 -3.07716 0
M  V30 712 O 68.1526 2.97393 -2.85712 0
M  V30 713 H 67.4936 0.277663 -0.603158 0
M  V30 714 H 70.0236 0.24783 -2.03093 0
M  V30 715 H 70.0336 2.2917 -3.37558 0
M  V30 716 H 68.7086 1.29417 -3.95252 0
M  V30 717 H 67.2856 2.60238 -2.67078 0
M  V30 718 N 69.4707 1.49531 0.497807 0
M  V30 719 C 70.4007 1.6935 1.60757 0
M  V30 720 C 71.3817 0.542218 1.61227 0
M  V30 721 O 72.5667 0.778417 1.77917 0
M  V30 722 C 69.6967 1.76298 2.99226 0
M  V30 723 C 68.6507 2.91248 3.13622 0
M  V30 724 C 67.9767 2.83312 4.53474 0
M  V30 725 C 69.2767 4.3214 2.93346 0
M  V30 726 H 70.9707 2.62263 1.44425 0
M  V30 727 H 68.5167 1.26208 0.693367 0
M  V30 728 H 70.4697 1.88749 3.76765 0
M  V30 729 H 69.1937 0.799871 3.16654 0
M  V30 730 H 67.8527 2.78404 2.38509 0
M  V30 731 H 67.5007 1.84902 4.67782 0
M  V30 732 H 67.2007 3.60465 4.64046 0
M  V30 733 H 68.7247 2.97775 5.33069 0
M  V30 734 H 70.1387 4.45649 3.60652 0
M  V30 735 H 68.5357 5.1054 3.15387 0
M  V30 736 H 69.6057 4.46363 1.89441 0
M  V30 737 N 70.9488 -0.749086 1.3866 0
M  V30 738 C 71.8788 -1.8764 1.38973 0
M  V30 739 C 72.8598 -1.68178 0.255004 0
M  V30 740 O 74.0448 -1.88704 0.458754 0
M  V30 741 C 71.1748 -3.25222 1.21851 0
M  V30 742 C 70.1288 -3.59295 2.32575 0
M  V30 743 C 69.4548 -4.95663 2.00555 0
M  V30 744 C 70.7548 -3.63709 3.7485 0
M  V30 745 H 72.4488 -1.87635 2.3331 0
M  V30 746 H 69.9948 -0.901329 1.12303 0
M  V30 747 H 71.9478 -4.03746 1.20695 0
M  V30 748 H 70.6718 -3.25719 0.239775 0
M  V30 749 H 69.3308 -2.83093 2.32925 0
M  V30 750 H 68.9788 -4.92724 1.01154 0
M  V30 751 H 68.6788 -5.19429 2.74714 0
M  V30 752 H 70.2028 -5.7656 2.01024 0
M  V30 753 H 71.6168 -4.32338 3.76506 0
M  V30 754 H 70.0138 -3.98986 4.48252 0
M  V30 755 H 71.0838 -2.63834 4.06841 0
M  V30 756 N 72.4269 -1.23603 -0.977757 0
M  V30 757 C 73.6749 -1.06759 -1.71601 0
M  V30 758 C 73.9959 0.395929 -1.90938 0
M  V30 759 O 73.2659 1.28356 -1.47992 0
M  V30 760 H 71.8459 -0.392062 -0.635843 0
M  V30 761 H 74.5079 -1.55362 -1.1768 0
M  V30 762 H 73.6039 -1.55763 -2.70452 0
M  V30 763 N 73.905 1.17692 -1.04816 0
M  V30 764 C 75.153 1.87488 -0.754497 0
M  V30 765 C 75.474 1.81205 0.720407 0
M  V30 766 O 74.744 1.23544 1.52032 0
M  V30 767 H 73.324 0.694101 -0.276102 0
M  V30 768 H 75.986 1.42793 -1.32651 0
M  V30 769 H 75.082 2.93328 -1.06606 0
M  V30 770 N 75.3831 0.828654 1.34056 0
M  V30 771 C 76.6111 0.43262 2.02326 0
M  V30 772 C 77.0261 -0.963147 1.62385 0
M  V30 773 O 76.3831 -1.62425 0.832121 0
M  V30 774 C 76.4341 0.53182 3.57567 0
M  V30 775 O 76.1551 1.87258 3.96063 0
M  V30 776 C 77.6561 0.131422 4.43105 0
M  V30 777 H 74.8761 0.172923 0.648335 0
M  V30 778 H 77.4201 1.1184 1.71208 0
M  V30 779 H 75.5751 -0.105938 3.87255 0
M  V30 780 H 75.9891 1.85087 4.90758 0
M  V30 781 H 77.4631 0.251904 5.51425 0
M  V30 782 H 77.9401 -0.925645 4.29335 0
M  V30 783 H 78.5461 0.743207 4.18756 0
M  V30 784 N 76.8612 -1.46375 0.584142 0
M  V30 785 C 78.1102 -2.01585 0.0679741 0
M  V30 786 C 78.4232 -1.46109 -1.30045 0
M  V30 787 O 79.6292 -1.93148 -1.90804 0
M  V30 788 C 78.0852 -3.5983 0.0709207 0
M  V30 789 C 77.6932 -4.24303 1.43775 0
M  V30 790 C 79.4372 -4.22693 -0.391228 0
M  V30 791 C 77.3442 -5.74631 1.39834 0
M  V30 792 H 76.2742 -0.753689 0.0216421 0
M  V30 793 H 78.9252 -1.68093 0.736001 0
M  V30 794 H 77.3072 -3.90405 -0.663299 0
M  V30 795 H 78.4812 -4.05335 2.19181 0
M  V30 796 H 76.7962 -3.73539 1.84004 0
M  V30 797 H 79.3932 -5.3289 -0.439524 0
M  V30 798 H 79.7362 -3.91728 -1.40906 0
M  V30 799 H 80.2692 -3.96749 0.288974 0
M  V30 800 H 77.0082 -6.10258 2.39303 0
M  V30 801 H 76.5282 -5.95858 0.686505 0
M  V30 802 H 78.2072 -6.37375 1.11187 0
M  V30 803 N 78.3393 -0.321999 -1.54275 0
M  V30 804 C 79.5643 0.285791 -2.05422 0
M  V30 805 C 79.9893 1.45124 -1.19669 0
M  V30 806 O 79.3473 1.80132 -0.205441 0
M  V30 807 C 79.3953 0.69956 -3.53749 0
M  V30 808 O 78.4993 1.8021 -3.70942 0
M  V30 809 H 77.8403 0.0518962 -0.661969 0
M  V30 810 H 80.3703 -0.469954 -1.9913 0
M  V30 811 H 80.3803 0.982649 -3.9599 0
M  V30 812 H 79.0553 -0.152864 -4.15619 0
M  V30 813 H 77.6323 1.51794 -3.40607 0
M  V30 814 N 79.8174 1.5752 -0.0501392 0
M  V30 815 C 80.7804 2.1037 0.909786 0
M  V30 816 C 81.7804 1.02308 1.24056 0
M  V30 817 O 82.9704 1.28385 1.17741 0
M  V30 818 C 80.1024 2.58708 2.21998 0
M  V30 819 H 81.2954 2.96479 0.451665 0
M  V30 820 H 78.8484 1.55038 0.198248 0
M  V30 821 H 79.5834 1.75989 2.72394 0
M  V30 822 H 79.3684 3.37675 1.99295 0
M  V30 823 H 80.8584 2.99747 2.9076 0
M  V30 824 N 81.2955 -0.223234 1.56011 0
M  V30 825 C 82.5255 -0.963413 1.82762 0
M  V30 826 C 82.9335 -1.78516 0.626804 0
M  V30 827 O 82.2765 -1.78974 -0.414014 0
M  V30 828 C 82.3385 -1.93126 3.0322 0
M  V30 829 C 82.0025 -1.2942 4.38291 0
M  V30 830 C 82.9995 -0.684916 5.15369 0
M  V30 831 C 80.6845 -1.30647 4.85012 0
M  V30 832 C 82.6785 -0.0963971 6.37327 0
M  V30 833 C 80.3655 -0.71411 6.06913 0
M  V30 834 C 81.3635 -0.110123 6.82911 0
M  V30 835 O 81.0515 0.47303 8.02507 0
M  V30 836 H 80.7835 -0.288011 0.611576 0
M  V30 837 H 83.3375 -0.244103 2.03944 0
M  V30 838 H 81.5675 -2.68952 2.77852 0
M  V30 839 H 83.2565 -2.53685 3.16857 0
M  V30 840 H 84.0225 -0.667774 4.80381 0
M  V30 841 H 79.9015 -1.76598 4.25833 0
M  V30 842 H 83.4455 0.375657 6.96588 0
M  V30 843 H 79.3425 -0.728659 6.41374 0
M  V30 844 H 80.1105 0.367186 8.17676 0
M  V30 845 N 82.7736 -1.49793 -0.48987 0
M  V30 846 C 83.7206 -1.67281 -1.59014 0
M  V30 847 C 84.6906 -0.514177 -1.57941 0
M  V30 848 O 85.8756 -0.742533 -1.75759 0
M  V30 849 C 83.0156 -1.75569 -2.97102 0
M  V30 850 C 82.1286 -3.0281 -3.08107 0
M  V30 851 C 81.2636 -3.02008 -4.36995 0
M  V30 852 C 80.3026 -4.23782 -4.41673 0
M  V30 853 N 79.4396 -4.20826 -5.62005 0
M  V30 854 H 84.2796 -2.61224 -1.43409 0
M  V30 855 H 81.8166 -1.29508 -0.697565 0
M  V30 856 H 83.7746 -1.78354 -3.77155 0
M  V30 857 H 82.4046 -0.850827 -3.11385 0
M  V30 858 H 81.4566 -3.09584 -2.21047 0
M  V30 859 H 82.7686 -3.92801 -3.07423 0
M  V30 860 H 81.9226 -3.03418 -5.25378 0
M  V30 861 H 80.6616 -2.09815 -4.4026 0
M  V30 862 H 79.6666 -4.22604 -3.5169 0
M  V30 863 H 80.8916 -5.17181 -4.40115 0
M  V30 864 H 78.8376 -3.31476 -5.66091 0
M  V30 865 H 78.7546 -5.04564 -5.62984 0
M  V30 866 H 80.0226 -4.26355 -6.52565 0
M  V30 867 N 84.2517 0.741722 -1.39055 0
M  V30 868 C 85.5007 1.49656 -1.35225 0
M  V30 869 C 85.8137 1.95533 0.0512708 0
M  V30 870 O 87.0197 2.7067 0.212138 0
M  V30 871 C 85.4757 2.70389 -2.37525 0
M  V30 872 C 85.0837 2.31489 -3.83558 0
M  V30 873 C 86.8277 3.48236 -2.42759 0
M  V30 874 C 84.7347 3.48903 -4.77515 0
M  V30 875 H 83.6647 0.56197 -0.502699 0
M  V30 876 H 86.3157 0.809727 -1.64668 0
M  V30 877 H 84.6977 3.41113 -2.01142 0
M  V30 878 H 85.8717 1.68354 -4.28945 0
M  V30 879 H 84.1867 1.66749 -3.81554 0
M  V30 880 H 86.7837 4.35558 -3.1015 0
M  V30 881 H 87.1267 3.90229 -1.45008 0
M  V30 882 H 87.6597 2.84535 -2.78002 0
M  V30 883 H 84.3987 3.11966 -5.76504 0
M  V30 884 H 83.9187 4.11041 -4.36813 0
M  V30 885 H 85.5977 4.15328 -4.96096 0
M  V30 886 N 85.7298 1.2412 0.971189 0
M  V30 887 C 86.9758 1.08041 1.71625 0
M  V30 888 C 87.3088 -0.380407 1.90438 0
M  V30 889 O 86.5838 -1.28127 1.46334 0
M  V30 890 C 86.8668 1.81682 3.10908 0
M  V30 891 C 86.7198 3.35493 2.99608 0
M  V30 892 C 88.0388 1.58671 4.10501 0
M  V30 893 H 85.1578 0.39388 0.622919 0
M  V30 894 H 87.7998 1.52743 1.13003 0
M  V30 895 H 85.9498 1.43684 3.60953 0
M  V30 896 H 87.6218 3.83068 2.57015 0
M  V30 897 H 85.8648 3.64052 2.35899 0
M  V30 898 H 86.5358 3.82217 3.98264 0
M  V30 899 H 89.0118 1.91719 3.69301 0
M  V30 900 H 87.8878 2.1266 5.06031 0
M  V30 901 H 88.1488 0.524161 4.38982 0
M  V30 902 N 87.2079 -1.17134 1.05439 0
M  V30 903 C 88.6189 -1.69084 0.791676 0
M  V30 904 C 88.9699 -1.83822 -0.685839 0
M  V30 905 O 88.0949 -1.52757 -1.53278 0
M  V30 906 C 88.6899 -3.07119 1.4305 0
M  V30 907 C 87.2489 -3.56225 1.21577 0
M  V30 908 C 86.3959 -2.32421 1.51247 0
M  V30 909 H 89.3469 -1.01617 1.219 0
M  V30 910 H 89.3679 -3.71087 0.84112 0
M  V30 911 H 88.8799 -2.9636 2.50584 0
M  V30 912 H 86.9809 -3.72257 0.159787 0
M  V30 913 H 87.0939 -4.38837 1.92246 0
M  V30 914 H 85.4579 -2.3701 0.932653 0
M  V30 915 H 86.2409 -2.24268 2.5992 0
M  V30 916 N 88.686 -0.835752 -1.33615 0
M  V30 917 C 89.963 -0.352017 -1.92406 0
M  V30 918 C 90.343 1.16225 -1.76224 0
M  V30 919 O 89.691 1.97526 -1.14873 0
M  V30 920 C 89.901 -0.795485 -3.39813 0
M  V30 921 C 91.249 -0.801703 -4.16963 0
M  V30 922 O 92.273 -0.738889 -3.48452 0
M  V30 923 O 91.132 -0.886607 -5.3926 0
M  V30 924 H 88.226 -0.0989641 -0.821057 0
M  V30 925 H 90.772 -0.921397 -1.42507 0
M  V30 926 H 89.544 -1.83795 -3.45449 0
M  V30 927 H 89.167 -0.202505 -3.97084 0
M  V30 928 N 90.1641 1.46063 -0.591896 0
M  V30 929 C 91.0741 2.34192 0.13831 0
M  V30 930 C 92.0901 1.50305 0.876608 0
M  V30 931 O 93.2661 1.8315 0.837728 0
M  V30 932 C 90.3311 3.27656 1.13326 0
M  V30 933 C 89.3921 4.27445 0.39863 0
M  V30 934 C 88.6251 5.16443 1.34618 0
M  V30 935 O 88.8481 5.08553 2.58321 0
M  V30 936 O 87.7821 5.95843 0.851768 0
M  V30 937 H 91.6081 2.98002 -0.58552 0
M  V30 938 H 89.1931 1.45188 -0.352239 0
M  V30 939 H 91.0751 3.85291 1.70671 0
M  V30 940 H 89.7501 2.6643 1.83839 0
M  V30 941 H 88.6571 3.73471 -0.216895 0
M  V30 942 H 89.9901 4.91482 -0.265709 0
M  V30 943 N 91.6422 0.330177 1.54103 0
M  V30 944 C 92.8912 -0.271336 1.99867 0
M  V30 945 C 93.2042 -1.52723 1.22209 0
M  V30 946 O 94.4102 -2.20515 1.58383 0
M  V30 947 C 92.8662 -0.534032 3.55916 0
M  V30 948 C 92.4742 0.705193 4.42415 0
M  V30 949 C 94.2182 -1.09514 4.1013 0
M  V30 950 C 92.1252 0.414035 5.89949 0
M  V30 951 H 91.0552 -0.105166 0.74663 0
M  V30 952 H 93.7062 0.443429 1.78062 0
M  V30 953 H 92.0882 -1.30915 3.73734 0
M  V30 954 H 93.2622 1.4804 4.36372 0
M  V30 955 H 91.5772 1.18698 3.99124 0
M  V30 956 H 94.1742 -1.3277 5.17954 0
M  V30 957 H 94.5172 -2.04656 3.62521 0
M  V30 958 H 95.0502 -0.381038 3.95971 0
M  V30 959 H 91.7892 1.33481 6.41766 0
M  V30 960 H 91.3092 -0.323336 5.98928 0
M  V30 961 H 92.9882 0.0263105 6.46995 0
M  V30 962 N 93.1203 -1.57491 0.0584922 0
M  V30 963 C 94.0303 -2.15448 -0.928414 0
M  V30 964 C 95.0463 -1.11416 -1.3365 0
M  V30 965 O 96.2223 -1.4362 -1.41193 0
M  V30 966 C 93.2873 -2.69393 -2.18239 0
M  V30 967 C 92.3483 -3.88249 -1.83196 0
M  V30 968 C 91.5813 -4.39613 -3.02616 0
M  V30 969 O 91.8043 -3.90023 -4.16219 0
M  V30 970 O 90.7383 -5.31111 -2.83204 0
M  V30 971 H 94.5643 -3.00112 -0.465483 0
M  V30 972 H 92.1493 -1.48499 -0.163826 0
M  V30 973 H 94.0313 -3.04026 -2.91798 0
M  V30 974 H 92.7063 -1.87796 -2.63656 0
M  V30 975 H 91.6133 -3.58492 -1.06931 0
M  V30 976 H 92.9463 -4.71098 -1.42573 0
M  V30 977 N 94.5984 0.214957 -1.56127 0
M  V30 978 C 95.5084 1.28727 -1.96129 0
M  V30 979 C 96.5244 1.50916 -0.866044 0
M  V30 980 O 97.7004 1.63918 -1.17016 0
M  V30 981 C 94.7654 2.61569 -2.27558 0
M  V30 982 C 93.8264 2.47625 -3.50685 0
M  V30 983 C 93.0594 3.74132 -3.80606 0
M  V30 984 O 93.2824 4.77438 -3.12104 0
M  V30 985 O 92.2164 3.70849 -4.74083 0
M  V30 986 H 96.0424 0.977855 -2.87527 0
M  V30 987 H 93.6274 0.418358 -1.43423 0
M  V30 988 H 95.5094 3.40012 -2.48938 0
M  V30 989 H 94.1844 2.92178 -1.39332 0
M  V30 990 H 93.0914 1.67361 -3.34576 0
M  V30 991 H 94.4244 2.21954 -4.39315 0
M  V30 992 N 96.0765 1.50051 0.48192 0
M  V30 993 C 97.3255 1.59741 1.23149 0
M  V30 994 C 97.6385 0.298163 1.93314 0
M  V30 995 O 98.8445 0.273835 2.70116 0
M  V30 996 C 97.3005 2.81926 2.23708 0
M  V30 997 C 96.9085 4.18685 1.59396 0
M  V30 998 C 98.6525 3.00956 2.99375 0
M  V30 999 C 96.5595 5.3207 2.58178 0
M  V30 1000 H 95.4895 0.594838 0.46334 0
M  V30 1001 H 98.1405 1.76467 0.503169 0
M  V30 1002 H 96.5225 2.58736 2.99786 0
M  V30 1003 H 97.6965 4.52088 0.891811 0
M  V30 1004 H 96.0115 4.05171 0.960503 0
M  V30 1005 H 98.6085 3.82836 3.73283 0
M  V30 1006 H 98.9515 2.12258 3.58123 0
M  V30 1007 H 99.4845 3.24277 2.30411 0
M  V30 1008 H 96.2235 6.22888 2.04184 0
M  V30 1009 H 95.7435 5.03098 3.26577 0
M  V30 1010 H 97.4225 5.62196 3.20225 0
M  V30 1011 N 97.5546 -0.734337 1.39446 0
M  V30 1012 C 98.5016 -1.84835 1.38219 0
M  V30 1013 C 99.4716 -1.64331 0.24179 0
M  V30 1014 O 100.657 -1.85728 0.437002 0
M  V30 1015 C 97.7966 -3.22355 1.23212 0
M  V30 1016 C 96.9096 -3.5456 2.46801 0
M  V30 1017 C 96.0446 -4.81485 2.24377 0
M  V30 1018 C 95.0836 -5.06536 3.43639 0
M  V30 1019 N 94.2206 -6.24665 3.20528 0
M  V30 1020 H 99.0606 -1.85219 2.33448 0
M  V30 1021 H 96.5976 -0.905039 1.15963 0
M  V30 1022 H 98.5556 -4.0174 1.12522 0
M  V30 1023 H 97.1856 -3.21248 0.316121 0
M  V30 1024 H 96.2376 -2.69872 2.68092 0
M  V30 1025 H 97.5496 -3.6899 3.3563 0
M  V30 1026 H 96.7036 -5.68852 2.10933 0
M  V30 1027 H 95.4426 -4.6923 1.32944 0
M  V30 1028 H 94.4476 -4.17632 3.5758 0
M  V30 1029 H 95.6726 -5.20676 4.35974 0
M  V30 1030 H 93.6186 -6.13696 2.3176 0
M  V30 1031 H 93.5356 -6.39685 4.02913 0
M  V30 1032 H 94.8036 -7.14868 3.10779 0
M  V30 1033 N 99.0327 -1.24633 -0.964593 0
M  V30 1034 C 99.9427 -1.05859 -2.09359 0
M  V30 1035 C 100.959 0.00148855 -1.74 0
M  V30 1036 O 102.135 -0.197346 -2.00431 0
M  V30 1037 C 99.1997 -0.668879 -3.40187 0
M  V30 1038 C 98.2607 -1.80578 -3.89474 0
M  V30 1039 C 97.4937 -1.43457 -5.14058 0
M  V30 1040 O 97.7167 -0.325775 -5.69469 0
M  V30 1041 O 96.6507 -2.2613 -5.57807 0
M  V30 1042 H 100.477 -2.00516 -2.28094 0
M  V30 1043 H 98.0617 -1.03481 -1.0776 0
M  V30 1044 H 99.9437 -0.463211 -4.18846 0
M  V30 1045 H 98.6187 0.248536 -3.22744 0
M  V30 1046 H 97.5257 -2.06623 -3.11862 0
M  V30 1047 H 98.8587 -2.70208 -4.11398 0
M  V30 1048 N 100.511 1.16574 -1.06058 0
M  V30 1049 C 101.739 1.90952 -0.796552 0
M  V30 1050 C 102.154 1.77302 0.648808 0
M  V30 1051 O 101.511 1.11605 1.44397 0
M  V30 1052 C 101.562 3.41736 -1.17894 0
M  V30 1053 O 101.283 3.54975 -2.56758 0
M  V30 1054 C 102.784 4.33169 -0.942308 0
M  V30 1055 H 100.004 0.605594 -0.288959 0
M  V30 1056 H 102.548 1.47777 -1.41358 0
M  V30 1057 H 100.703 3.82623 -0.606491 0
M  V30 1058 H 101.117 4.4846 -2.72 0
M  V30 1059 H 102.591 5.37439 -1.25952 0
M  V30 1060 H 103.068 4.3903 0.122078 0
M  V30 1061 H 103.674 3.98007 -1.49902 0
M  V30 1062 N 101.989 0.842826 1.3317 0
M  V30 1063 C 102.919 0.294028 2.31641 0
M  V30 1064 C 103.9 -0.600401 1.59151 0
M  V30 1065 O 105.085 -0.523124 1.87022 0
M  V30 1066 C 102.215 -0.528416 3.43257 0
M  V30 1067 C 101.169 0.27056 4.27144 0
M  V30 1068 C 100.495 -0.675881 5.30411 0
M  V30 1069 C 101.795 1.48981 5.00602 0
M  V30 1070 H 103.489 1.11681 2.77791 0
M  V30 1071 H 101.035 0.538478 1.33553 0
M  V30 1072 H 102.988 -0.922674 4.11175 0
M  V30 1073 H 101.712 -1.38445 2.95805 0
M  V30 1074 H 100.371 0.646427 3.60856 0
M  V30 1075 H 100.019 -1.52842 4.79216 0
M  V30 1076 H 99.7189 -0.145374 5.8742 0
M  V30 1077 H 101.243 -1.06757 6.01195 0
M  V30 1078 H 102.657 1.16849 5.61266 0
M  V30 1079 H 101.054 1.95739 5.6728 0
M  V30 1080 H 102.124 2.25746 4.29147 0
M  V30 1081 N 103.467 -1.45747 0.599634 0
M  V30 1082 C 104.716 -2.01502 0.0893511 0
M  V30 1083 C 105.029 -1.4748 -1.28488 0
M  V30 1084 O 106.235 -1.95161 -1.88745 0
M  V30 1085 C 104.691 -3.59735 0.109082 0
M  V30 1086 C 104.299 -4.22754 1.48267 0
M  V30 1087 C 106.043 -4.23085 -0.346374 0
M  V30 1088 C 103.95 -5.73115 1.45921 0
M  V30 1089 H 102.88 -0.753417 0.0296347 0
M  V30 1090 H 105.531 -1.67303 0.753788 0
M  V30 1091 H 103.913 -3.91087 -0.621854 0
M  V30 1092 H 105.087 -4.02987 2.23468 0
M  V30 1093 H 103.402 -3.71567 1.87955 0
M  V30 1094 H 105.999 -5.33327 -0.38298 0
M  V30 1095 H 106.342 -3.93201 -1.36743 0
M  V30 1096 H 106.875 -3.9642 0.331038 0
M  V30 1097 H 103.614 -6.07685 2.45762 0
M  V30 1098 H 103.134 -5.95097 0.749665 0
M  V30 1099 H 104.813 -6.3616 1.17941 0
M  V30 1100 N 104.945 -0.338344 -1.53925 0
M  V30 1101 C 106.222 0.314774 -1.93051 0
M  V30 1102 C 106.602 1.68669 -1.26941 0
M  V30 1103 O 105.95 2.24636 -0.418445 0
M  V30 1104 C 106.16 0.392249 -3.46789 0
M  V30 1105 C 107.508 0.645554 -4.19664 0
M  V30 1106 O 108.532 0.474575 -3.53024 0
M  V30 1107 O 107.391 0.976408 -5.37707 0
M  V30 1108 H 104.485 0.182598 -0.80659 0
M  V30 1109 H 107.031 -0.389141 -1.65178 0
M  V30 1110 H 105.803 -0.570702 -3.87116 0
M  V30 1111 H 105.426 1.14316 -3.80812 0
M  V30 1112 N 106.423 1.57458 -0.0668435 0
M  V30 1113 C 107.669 1.94401 0.598316 0
M  V30 1114 C 108.024 0.946335 1.67518 0
M  V30 1115 O 107.317 -0.0321442 1.91573 0
M  V30 1116 C 107.511 3.35784 1.22409 0
M  V30 1117 C 107.34 4.49212 0.209367 0
M  V30 1118 C 106.11 5.04887 -0.204218 0
M  V30 1119 C 108.308 5.11335 -0.551431 0
M  V30 1120 N 106.29 6.01854 -1.21016 0
M  V30 1121 C 107.661 6.03754 -1.41 0
M  V30 1122 C 109.716 4.94173 -0.608038 0
M  V30 1123 C 108.419 6.80854 -2.32013 0
M  V30 1124 C 110.445 5.71912 -1.50566 0
M  V30 1125 C 109.807 6.63976 -2.35191 0
M  V30 1126 H 105.906 0.758538 0.190114 0
M  V30 1127 H 108.49 1.94175 -0.142832 0
M  V30 1128 H 106.661 3.36757 1.93518 0
M  V30 1129 H 108.393 3.59976 1.84931 0
M  V30 1130 H 105.148 4.73266 0.177908 0
M  V30 1131 H 105.572 6.55035 -1.71049 0
M  V30 1132 H 110.214 4.22788 0.032022 0
M  V30 1133 H 107.932 7.5152 -2.97057 0
M  V30 1134 H 111.518 5.60656 -1.55423 0
M  V30 1135 H 110.398 7.2308 -3.03522 0
M  V30 1136 N 107.901 -0.206675 1.56239 0
M  V30 1137 C 109.141 -0.93574 1.81723 0
M  V30 1138 C 109.505 -1.80927 0.642609 0
M  V30 1139 O 110.706 -2.57323 0.777081 0
M  V30 1140 C 108.977 -1.74012 3.12177 0
M  V30 1141 S 110.536 -2.52279 3.59028 0
M  V30 1142 H 107.354 -0.314065 0.637875 0
M  V30 1143 H 109.956 -0.200071 1.94474 0
M  V30 1144 H 108.66 -1.0888 3.95693 0
M  V30 1145 H 108.191 -2.51782 3.02274 0
M  V30 1146 H 110.206 -3.76209 3.23545 0
M  V30 1147 N 109.379 -1.50304 -0.473955 0
M  V30 1148 C 110.656 -1.51667 -1.23518 0
M  V30 1149 C 111.036 -0.259701 -2.09496 0
M  V30 1150 O 110.384 0.756986 -2.15597 0
M  V30 1151 C 110.594 -2.81082 -2.06868 0
M  V30 1152 C 111.942 -3.31631 -2.65153 0
M  V30 1153 O 112.966 -2.82384 -2.17113 0
M  V30 1154 O 111.825 -4.17471 -3.52675 0
M  V30 1155 H 108.919 -0.60822 -0.560355 0
M  V30 1156 H 111.465 -1.62592 -0.486011 0
M  V30 1157 H 110.237 -3.64041 -1.4349 0
M  V30 1158 H 109.86 -2.73146 -2.88924 0
M  V30 1159 N 110.857 0.726932 -1.39834 0
M  V30 1160 C 111.767 1.87131 -1.41489 0
M  V30 1161 C 112.783 1.71239 -0.308757 0
M  V30 1162 O 113.959 1.93701 -0.551529 0
M  V30 1163 C 111.024 3.22811 -1.26468 0
M  V30 1164 C 110.085 3.51039 -2.47124 0
M  V30 1165 C 109.318 4.80245 -2.3281 0
M  V30 1166 O 109.541 5.54537 -1.33585 0
M  V30 1167 O 108.475 5.08554 -3.21957 0
M  V30 1168 H 112.301 1.8869 -2.3797 0
M  V30 1169 H 109.886 0.875837 -1.21035 0
M  V30 1170 H 111.768 4.03877 -1.20255 0
M  V30 1171 H 110.443 3.22005 -0.330862 0
M  V30 1172 H 109.35 2.70027 -2.58914 0
M  V30 1173 H 110.683 3.56632 -3.39227 0
M  V30 1174 N 112.336 1.25143 0.95797 0
M  V30 1175 C 113.283 1.05235 2.05412 0
M  V30 1176 C 114.253 -0.0374561 1.66058 0
M  V30 1177 O 115.438 0.119073 1.90428 0
M  V30 1178 C 112.578 0.673589 3.38462 0
M  V30 1179 C 111.691 1.8379 3.90954 0
M  V30 1180 C 110.826 1.40381 5.12315 0
M  V30 1181 C 109.865 2.53746 5.57027 0
M  V30 1182 N 109.002 2.11136 6.69601 0
M  V30 1183 H 113.842 1.99048 2.21774 0
M  V30 1184 H 111.379 0.991277 1.08683 0
M  V30 1185 H 113.337 0.434964 4.14926 0
M  V30 1186 H 111.967 -0.227554 3.21997 0
M  V30 1187 H 111.019 2.18992 3.11041 0
M  V30 1188 H 112.331 2.68937 4.20089 0
M  V30 1189 H 111.485 1.12464 5.96185 0
M  V30 1190 H 110.224 0.523015 4.84887 0
M  V30 1191 H 109.229 2.82412 4.71724 0
M  V30 1192 H 110.454 3.42398 5.86464 0
M  V30 1193 H 108.4 1.25468 6.4389 0
M  V30 1194 H 108.317 2.89832 6.98236 0
M  V30 1195 H 109.585 1.86385 7.56889 0
M  V30 1196 N 113.814 -1.1601 1.06675 0
M  V30 1197 C 114.724 -2.24156 0.692179 0
M  V30 1198 C 115.74 -1.71507 -0.293513 0
M  V30 1199 O 116.916 -2.009 -0.141861 0
M  V30 1200 C 113.981 -3.46587 0.0884131 0
M  V30 1201 C 113.042 -4.14257 1.12646 0
M  V30 1202 C 112.275 -5.30844 0.551416 0
M  V30 1203 O 112.498 -5.66858 -0.634656 0
M  V30 1204 O 111.432 -5.87848 1.29298 0
M  V30 1205 H 115.258 -2.58513 1.59388 0
M  V30 1206 H 112.843 -1.23599 0.83926 0
M  V30 1207 H 114.725 -4.20679 -0.246361 0
M  V30 1208 H 113.4 -3.13994 -0.786712 0
M  V30 1209 H 112.307 -3.42118 1.51348 0
M  V30 1210 H 113.64 -4.50914 1.97325 0
M  V30 1211 N 115.292 -0.849877 -1.32721 0
M  V30 1212 C 116.222 -0.306308 -2.31482 0
M  V30 1213 C 117.203 0.591952 -1.59468 0
M  V30 1214 O 118.388 0.513199 -1.87296 0
M  V30 1215 C 115.518 0.510204 -3.43532 0
M  V30 1216 C 114.472 -0.293209 -4.26994 0
M  V30 1217 C 113.798 0.647743 -5.30762 0
M  V30 1218 C 115.098 -1.51634 -4.99804 0
M  V30 1219 H 116.792 -1.13153 -2.77195 0
M  V30 1220 H 114.338 -0.545553 -1.33266 0
M  V30 1221 H 116.291 0.900856 -4.11658 0
M  V30 1222 H 115.015 1.36874 -2.96535 0
M  V30 1223 H 113.674 -0.665555 -3.60508 0
M  V30 1224 H 113.322 1.50299 -4.8002 0
M  V30 1225 H 113.022 0.11422 -5.87489 0
M  V30 1226 H 114.546 1.03567 -6.01753 0
M  V30 1227 H 115.96 -1.19824 -5.60638 0
M  V30 1228 H 114.357 -1.98745 -5.66234 0
M  V30 1229 H 115.427 -2.28018 -4.27943 0
M  V30 1230 N 116.77 1.45427 -0.607355 0
M  V30 1231 C 117.718 2.32269 0.12411 0
M  V30 1232 C 118.712 1.45955 0.859854 0
M  V30 1233 O 119.918 1.6244 0.775447 0
M  V30 1234 H 116.293 0.749691 0.0588839 0
M  V30 1235 H 118.264 2.91743 -0.626762 0
M  V30 1236 C 117.013 3.29567 1.1082 0
M  V30 1237 H 116.336 3.95978 0.551492 0
M  V30 1238 H 117.776 3.93061 1.58995 0
M  V30 1239 C 116.235 2.56722 2.18164 0
M  V30 1240 O 116.765 2.34842 3.25902 0
M  V30 1241 N 114.971 2.16861 1.93442 0
M  V30 1242 H 114.518 2.34855 1.05834 0
M  V30 1243 H 114.476 1.68444 2.65469 0
M  V30 1244 N 118.248 0.346503 1.53744 0
M  V30 1245 C 119.178 -0.501193 2.28058 0
M  V30 1246 C 120.159 -1.10014 1.29734 0
M  V30 1247 O 121.344 -1.12097 1.58581 0
M  V30 1248 C 118.474 -1.65078 3.05559 0
M  V30 1249 C 117.428 -1.18003 4.11411 0
M  V30 1250 C 116.754 -2.41837 4.76884 0
M  V30 1251 C 118.054 -0.278394 5.21558 0
M  V30 1252 H 119.748 0.11875 2.99164 0
M  V30 1253 H 117.294 0.0585531 1.43881 0
M  V30 1254 H 119.247 -2.25028 3.56287 0
M  V30 1255 H 117.971 -2.29767 2.32109 0
M  V30 1256 H 116.63 -0.603331 3.61601 0
M  V30 1257 H 116.278 -3.0494 4.00026 0
M  V30 1258 H 115.978 -2.1102 5.48402 0
M  V30 1259 H 117.502 -3.02508 5.30397 0
M  V30 1260 H 118.916 -0.784823 5.67903 0
M  V30 1261 H 117.313 -0.0619707 6.00068 0
M  V30 1262 H 118.383 0.684677 4.80042 0
M  V30 1263 N 119.726 -1.57421 0.075193 0
M  V30 1264 C 120.975 -1.92794 -0.592731 0
M  V30 1265 C 121.288 -0.957478 -1.70563 0
M  V30 1266 O 122.494 -1.20417 -2.43335 0
M  V30 1267 C 120.95 -3.42495 -1.10569 0
M  V30 1268 C 120.558 -4.47994 -0.0236121 0
M  V30 1269 C 122.302 -3.86864 -1.74748 0
M  V30 1270 C 120.209 -5.88829 -0.550803 0
M  V30 1271 H 119.139 -0.719591 -0.225177 0
M  V30 1272 H 121.79 -1.82902 0.147978 0
M  V30 1273 H 120.172 -3.47471 -1.89947 0
M  V30 1274 H 121.346 -4.54637 0.751099 0
M  V30 1275 H 119.661 -4.13113 0.522159 0
M  V30 1276 H 122.258 -4.8947 -2.15229 0
M  V30 1277 H 122.601 -3.24417 -2.60882 0
M  V30 1278 H 123.134 -3.84504 -1.01986 0
M  V30 1279 H 119.873 -6.54929 0.273457 0
M  V30 1280 H 119.393 -5.85698 -1.29296 0
M  V30 1281 H 121.072 -6.38811 -1.02613 0
M  V30 1282 N 121.204 0.198386 -1.56346 0
M  V30 1283 C 122.134 1.24865 -1.9731 0
M  V30 1284 C 123.115 1.47651 -0.844576 0
M  V30 1285 O 124.3 1.59444 -1.10866 0
M  V30 1286 C 121.43 2.59358 -2.30977 0
M  V30 1287 C 120.384 2.5119 -3.46537 0
M  V30 1288 C 119.71 3.89926 -3.65871 0
M  V30 1289 C 121.01 2.03977 -4.80823 0
M  V30 1290 H 122.704 0.908252 -2.85291 0
M  V30 1291 H 120.25 0.435462 -1.37258 0
M  V30 1292 H 122.203 3.33011 -2.58228 0
M  V30 1293 H 120.927 2.95132 -1.39874 0
M  V30 1294 H 119.586 1.79993 -3.19371 0
M  V30 1295 H 119.234 4.23046 -2.72105 0
M  V30 1296 H 118.934 3.85336 -4.4361 0
M  V30 1297 H 120.458 4.65205 -3.95495 0
M  V30 1298 H 121.872 2.67386 -5.07127 0
M  V30 1299 H 120.269 2.10397 -5.62008 0
M  V30 1300 H 121.339 0.992861 -4.74626 0
M  V30 1301 N 122.682 1.50554 0.465978 0
M  V30 1302 C 123.91 1.65563 1.24083 0
M  V30 1303 C 124.325 0.341051 1.85694 0
M  V30 1304 O 123.682 -0.677543 1.69457 0
M  V30 1305 C 123.733 2.75051 2.34583 0
M  V30 1306 O 123.454 4.01413 1.75497 0
M  V30 1307 C 124.955 3.01078 3.25372 0
M  V30 1308 H 122.175 0.55638 0.375077 0
M  V30 1309 H 124.719 1.96807 0.555624 0
M  V30 1310 H 122.874 2.46486 2.9887 0
M  V30 1311 H 123.288 4.62002 2.48303 0
M  V30 1312 H 124.762 3.81339 3.99105 0
M  V30 1313 H 125.239 2.12349 3.84453 0
M  V30 1314 H 125.845 3.31194 2.66816 0
M  V30 1315 N 124.16 -0.719506 1.40217 0
M  V30 1316 C 125.388 -1.50864 1.41589 0
M  V30 1317 C 125.803 -1.88794 0.0145275 0
M  V30 1318 O 125.16 -1.55174 -0.960594 0
M  V30 1319 C 125.211 -2.78646 2.30302 0
M  V30 1320 O 124.932 -2.42321 3.64983 0
M  V30 1321 C 126.433 -3.72569 2.40224 0
M  V30 1322 H 123.653 -0.465709 0.48307 0
M  V30 1323 H 126.197 -0.88785 1.84221 0
M  V30 1324 H 124.352 -3.37019 1.91042 0
M  V30 1325 H 124.766 -3.24514 4.12057 0
M  V30 1326 H 126.24 -4.5908 3.06512 0
M  V30 1327 H 126.717 -4.15403 1.42608 0
M  V30 1328 H 127.323 -3.20109 2.80019 0
M  V30 1329 N 125.638 -1.25649 -0.95132 0
M  V30 1330 C 126.886 -1.10375 -1.69298 0
M  V30 1331 C 127.207 0.355339 -1.91735 0
M  V30 1332 O 126.477 1.25188 -1.50681 0
M  V30 1333 H 125.057 -0.405461 -0.627384 0
M  V30 1334 H 127.719 -1.57823 -1.14358 0
M  V30 1335 H 126.815 -1.61465 -2.67087 0
M  V30 1336 N 127.117 1.15442 -1.07289 0
M  V30 1337 C 128.365 1.85845 -0.794096 0
M  V30 1338 C 128.686 1.82692 0.681809 0
M  V30 1339 O 127.956 1.26741 1.49377 0
M  V30 1340 H 126.536 0.688089 -0.290763 0
M  V30 1341 H 129.198 1.39947 -1.3565 0
M  V30 1342 H 128.294 2.91001 -1.12804 0
M  V30 1343 N 128.595 0.856903 1.32268 0
M  V30 1344 C 129.823 0.475439 2.01363 0
M  V30 1345 C 130.238 -0.928486 1.64392 0
M  V30 1346 O 129.595 -1.60624 0.866387 0
M  V30 1347 C 129.646 0.607545 3.56358 0
M  V30 1348 O 129.367 1.95617 3.92002 0
M  V30 1349 C 130.868 0.225382 4.42727 0
M  V30 1350 H 128.088 0.186636 0.644521 0
M  V30 1351 H 130.632 1.15446 1.68797 0
M  V30 1352 H 128.787 -0.0237719 3.87393 0
M  V30 1353 H 129.201 1.95455 4.86721 0
M  V30 1354 H 130.675 0.368813 5.50767 0
M  V30 1355 H 131.152 -0.834369 4.31202 0
M  V30 1356 H 131.758 0.831864 4.17085 0
M  V30 1357 N 130.073 -1.45103 0.615059 0
M  V30 1358 C 131.321 -2.01784 0.112955 0
M  V30 1359 C 131.642 -1.48504 -1.26378 0
M  V30 1360 O 130.912 -0.682245 -1.83636 0
M  V30 1361 H 129.492 -0.745993 0.0387668 0
M  V30 1362 H 132.154 -1.77808 0.798141 0
M  V30 1363 H 131.25 -3.12025 0.0684069 0
M  V30 1364 N 131.551 -0.354651 -1.53558 0
M  V30 1365 C 132.798 0.238443 -2.01091 0
M  V30 1366 C 133.126 1.49663 -1.24222 0
M  V30 1367 O 132.381 1.93049 -0.321003 0
M  V30 1368 C 132.68 0.587121 -3.52545 0
M  V30 1369 C 132.346 -0.575472 -4.47213 0
M  V30 1370 C 131.008 -0.894497 -4.72813 0
M  V30 1371 C 133.36 -1.35489 -5.03281 0
M  V30 1372 C 130.688 -1.99511 -5.51736 0
M  V30 1373 C 133.04 -2.44583 -5.83405 0
M  V30 1374 C 131.704 -2.77033 -6.07296 0
M  V30 1375 H 130.974 0.0872526 -0.735845 0
M  V30 1376 H 133.621 -0.484859 -1.8526 0
M  V30 1377 H 131.926 1.39129 -3.66265 0
M  V30 1378 H 133.623 1.05809 -3.86789 0
M  V30 1379 H 130.213 -0.316774 -4.27428 0
M  V30 1380 H 134.397 -1.12167 -4.83459 0
M  V30 1381 H 129.653 -2.25063 -5.68469 0
M  V30 1382 H 133.827 -3.05401 -6.25862 0
M  V30 1383 H 131.454 -3.6244 -6.68237 0
M  V30 1384 N 133.029 1.57378 -0.0835403 0
M  V30 1385 C 133.992 2.12252 0.864959 0
M  V30 1386 C 134.992 1.04916 1.21858 0
M  V30 1387 O 136.182 1.30853 1.14991 0
M  V30 1388 C 133.314 2.63358 2.16461 0
M  V30 1389 H 134.507 2.97371 0.388676 0
M  V30 1390 H 132.06 1.55423 0.165317 0
M  V30 1391 H 132.795 1.81727 2.686 0
M  V30 1392 H 132.58 3.41826 1.92087 0
M  V30 1393 H 134.07 3.05847 2.84337 0
M  V30 1394 N 134.507 -0.190092 1.56449 0
M  V30 1395 C 135.918 -0.754312 1.70784 0
M  V30 1396 C 136.269 -1.83631 0.690951 0
M  V30 1397 O 135.394 -2.15868 -0.151604 0
M  V30 1398 C 135.989 -1.37503 3.09642 0
M  V30 1399 C 134.548 -1.88628 3.25725 0
M  V30 1400 C 133.695 -0.758098 2.66736 0
M  V30 1401 H 136.646 0.0350524 1.58661 0
M  V30 1402 H 136.667 -2.2445 3.0725 0
M  V30 1403 H 136.179 -0.587302 3.83631 0
M  V30 1404 H 134.28 -2.70103 2.56661 0
M  V30 1405 H 134.393 -2.04462 4.3328 0
M  V30 1406 H 132.757 -1.17369 2.26046 0
M  V30 1407 H 133.54 0.0174705 3.43296 0
M  V30 1408 N 135.985 -1.50799 -0.457987 0
M  V30 1409 C 137.401 -1.38515 -0.792819 0
M  V30 1410 C 137.601 -0.451409 -1.96379 0
M  V30 1411 O 136.657 0.10112 -2.52297 0
M  V30 1412 C 137.97 -2.80149 -1.09258 0
M  V30 1413 C 139.518 -2.89156 -1.19825 0
M  V30 1414 C 139.993 -4.31651 -1.53106 0
M  V30 1415 N 141.484 -4.34662 -1.60072 0
M  V30 1416 C 142.219 -5.41928 -1.87354 0
M  V30 1417 N 141.715 -6.59384 -2.12568 0
M  V30 1418 N 143.508 -5.29385 -1.88965 0
M  V30 1419 H 135.659 -2.10073 0.313511 0
M  V30 1420 H 137.922 -0.944803 0.0777862 0
M  V30 1421 H 137.628 -3.50374 -0.305084 0
M  V30 1422 H 137.502 -3.18204 -2.02549 0
M  V30 1423 H 139.889 -2.19141 -1.97639 0
M  V30 1424 H 139.97 -2.54626 -0.244821 0
M  V30 1425 H 139.614 -5.02208 -0.758266 0
M  V30 1426 H 139.544 -4.63678 -2.49621 0
M  V30 1427 H 142.035 -3.49973 -1.42573 0
M  V30 1428 H 142.348 -7.36934 -2.32696 0
M  V30 1429 H 140.693 -6.62535 -2.09933 0
M  V30 1430 H 143.884 -4.36616 -1.68772 0
M  V30 1431 H 144.057 -6.13066 -2.09891 0
M  V30 1432 N 137.463 0.71206 -1.40597 0
M  V30 1433 C 138.74 1.46536 -1.29563 0
M  V30 1434 C 139.12 2.10931 0.0844217 0
M  V30 1435 O 138.468 2.00418 1.0975 0
M  V30 1436 C 138.678 2.49821 -2.43701 0
M  V30 1437 C 140.026 3.15551 -2.841 0
M  V30 1438 O 141.05 2.60142 -2.4332 0
M  V30 1439 O 139.909 4.15867 -3.54566 0
M  V30 1440 H 137.003 0.651801 -0.509004 0
M  V30 1441 H 139.549 0.743935 -1.52524 0
M  V30 1442 H 138.321 2.00778 -3.35863 0
M  V30 1443 H 137.944 3.29495 -2.22528 0
M  V30 1444 N 138.941 1.26152 0.944643 0
M  V30 1445 C 140.187 1.11657 1.69294 0
M  V30 1446 C 140.52 -0.339926 1.91202 0
M  V30 1447 O 139.795 -1.24994 1.49019 0
M  V30 1448 C 140.078 1.88236 3.06984 0
M  V30 1449 C 139.931 3.41772 2.92424 0
M  V30 1450 C 141.25 1.67343 4.07043 0
M  V30 1451 H 138.369 0.407004 0.614424 0
M  V30 1452 H 141.011 1.55106 1.09737 0
M  V30 1453 H 139.161 1.51308 3.57824 0
M  V30 1454 H 140.833 3.88433 2.48832 0
M  V30 1455 H 139.076 3.68974 2.28124 0
M  V30 1456 H 139.747 3.90579 3.90067 0
M  V30 1457 H 142.223 1.99509 3.65151 0
M  V30 1458 H 141.099 2.23346 5.01406 0
M  V30 1459 H 141.36 0.617158 4.37771 0
M  V30 1460 N 140.419 -1.14872 1.07899 0
M  V30 1461 C 141.647 -1.89661 0.82683 0
M  V30 1462 C 142.062 -1.78312 -0.620519 0
M  V30 1463 O 141.419 -1.13888 -1.42604 0
M  V30 1464 C 141.47 -3.39817 1.23316 0
M  V30 1465 O 141.191 -3.50845 2.62372 0
M  V30 1466 C 142.692 -4.31615 1.0111 0
M  V30 1467 H 139.912 -0.60092 0.298557 0
M  V30 1468 H 142.456 -1.4551 1.43691 0
M  V30 1469 H 140.611 -3.8161 0.667286 0
M  V30 1470 H 141.025 -4.44076 2.79101 0
M  V30 1471 H 142.499 -5.35367 1.34486 0
M  V30 1472 H 142.976 -4.39169 -0.0522168 0
M  V30 1473 H 143.582 -3.95572 1.56215 0
M  V30 1474 N 141.898 -0.863906 -1.31812 0
M  V30 1475 C 143.309 -0.52522 -1.7916 0
M  V30 1476 C 143.66 0.957518 -1.71248 0
M  V30 1477 O 142.785 1.74734 -1.27659 0
M  V30 1478 C 143.38 -0.9466 -3.25307 0
M  V30 1479 C 141.939 -0.659668 -3.70574 0
M  V30 1480 C 141.086 -1.14126 -2.52726 0
M  V30 1481 H 144.037 -1.05022 -1.1898 0
M  V30 1482 H 144.058 -0.266766 -3.79564 0
M  V30 1483 H 143.57 -2.02579 -3.31034 0
M  V30 1484 H 141.671 0.408416 -3.70355 0
M  V30 1485 H 141.784 -1.23245 -4.62977 0
M  V30 1486 H 140.148 -0.561216 -2.4844 0
M  V30 1487 H 140.931 -2.22775 -2.61201 0
M  V30 1488 N 143.376 1.44774 -0.622745 0
M  V30 1489 C 144.286 2.34433 0.0886031 0
M  V30 1490 C 145.302 1.52131 0.844529 0
M  V30 1491 O 146.478 1.84886 0.798691 0
M  V30 1492 C 143.543 3.29986 1.0635 0
M  V30 1493 C 142.604 4.28195 0.307873 0
M  V30 1494 C 141.837 5.19183 1.23633 0
M  V30 1495 O 142.06 5.13918 2.47476 0
M  V30 1496 O 140.994 5.97515 0.725189 0
M  V30 1497 H 144.82 2.96693 -0.648599 0
M  V30 1498 H 142.405 1.44408 -0.382957 0
M  V30 1499 H 144.287 3.88825 1.6246 0
M  V30 1500 H 142.962 2.70269 1.78146 0
M  V30 1501 H 141.869 3.72927 -0.296064 0
M  V30 1502 H 143.202 4.90808 -0.3699 0
M  V30 1503 N 144.854 0.36279 1.53368 0
M  V30 1504 C 145.817 -0.472679 2.24273 0
M  V30 1505 C 146.817 -1.012 1.24961 0
M  V30 1506 O 148.007 -0.898194 1.49259 0
M  V30 1507 C 145.139 -1.66039 2.97731 0
M  V30 1508 H 146.332 0.14773 2.99536 0
M  V30 1509 H 143.885 0.114434 1.55881 0
M  V30 1510 H 144.62 -2.31896 2.26704 0
M  V30 1511 H 144.405 -1.28066 3.70596 0
M  V30 1512 H 145.895 -2.25252 3.51641 0
M  V30 1513 N 146.332 -1.57332 0.0918853 0
M  V30 1514 C 147.56 -1.98574 -0.581048 0
M  V30 1515 C 147.975 -0.970903 -1.61923 0
M  V30 1516 O 147.332 0.0399054 -1.82456 0
M  V30 1517 C 147.383 -3.39872 -1.23164 0
M  V30 1518 O 147.104 -4.37469 -0.234989 0
M  V30 1519 C 148.605 -3.96099 -1.99049 0
M  V30 1520 H 145.825 -0.65261 -0.156018 0
M  V30 1521 H 148.369 -2.0379 0.170225 0
M  V30 1522 H 146.524 -3.35679 -1.93386 0
M  V30 1523 H 146.938 -5.19751 -0.70418 0
M  V30 1524 H 148.412 -4.97127 -2.39934 0
M  V30 1525 H 148.889 -3.3374 -2.85507 0
M  V30 1526 H 149.495 -4.03755 -1.3365 0
M  V30 1527 N 147.81 0.181792 -1.56548 0
M  V30 1528 C 148.757 1.22521 -1.95595 0
M  V30 1529 C 149.727 1.4454 -0.818373 0
M  V30 1530 O 150.912 1.57454 -1.07763 0
M  V30 1531 C 148.052 2.56193 -2.31212 0
M  V30 1532 C 147.165 2.41641 -3.58097 0
M  V30 1533 C 146.3 3.68108 -3.82975 0
M  V30 1534 C 145.339 3.48445 -5.03242 0
M  V30 1535 N 144.476 4.66956 -5.24306 0
M  V30 1536 H 149.316 0.885226 -2.84548 0
M  V30 1537 H 146.853 0.425718 -1.40805 0
M  V30 1538 H 148.811 3.34088 -2.49882 0
M  V30 1539 H 147.441 2.88208 -1.45382 0
M  V30 1540 H 146.493 1.54976 -3.474 0
M  V30 1541 H 147.805 2.23052 -4.46149 0
M  V30 1542 H 146.959 4.54441 -4.01956 0
M  V30 1543 H 145.698 3.89666 -2.93278 0
M  V30 1544 H 144.703 2.60499 -4.8417 0
M  V30 1545 H 145.928 3.2832 -5.9446 0
M  V30 1546 H 143.874 4.88752 -4.37559 0
M  V30 1547 H 143.791 4.51242 -6.06561 0
M  V30 1548 H 145.059 5.54602 -5.47756 0
M  V30 1549 N 149.288 1.51039 0.449983 0
M  V30 1550 C 150.198 1.74261 1.57067 0
M  V30 1551 C 151.214 0.626363 1.62335 0
M  V30 1552 O 152.39 0.907162 1.79812 0
M  V30 1553 C 149.455 1.85114 2.93144 0
M  V30 1554 C 148.516 3.0893 2.98095 0
M  V30 1555 C 147.749 3.19256 4.27681 0
M  V30 1556 O 147.972 2.35835 5.19363 0
M  V30 1557 O 146.906 4.12144 4.38658 0
M  V30 1558 H 150.732 2.69303 1.40391 0
M  V30 1559 H 148.317 1.35389 0.631688 0
M  V30 1560 H 150.199 1.94311 3.73926 0
M  V30 1561 H 148.874 0.932588 3.09975 0
M  V30 1562 H 147.781 3.0522 2.16314 0
M  V30 1563 H 149.114 4.00433 2.86206 0
M  V30 1564 N 150.766 -0.704594 1.40972 0
M  V30 1565 C 152.012 -1.46675 1.40051 0
M  V30 1566 C 152.345 -1.94199 0.00641102 0
M  V30 1567 O 151.62 -1.68916 -0.964235 0
M  V30 1568 C 151.903 -2.68505 2.39952 0
M  V30 1569 C 151.756 -2.26805 3.88432 0
M  V30 1570 C 153.075 -3.70686 2.37233 0
M  V30 1571 H 150.194 -0.532015 0.510028 0
M  V30 1572 H 152.836 -0.803255 1.72185 0
M  V30 1573 H 150.986 -3.25114 2.1268 0
M  V30 1574 H 152.658 -1.75592 4.26574 0
M  V30 1575 H 150.901 -1.58685 4.03734 0
M  V30 1576 H 151.572 -3.14181 4.53866 0
M  V30 1577 H 154.048 -3.23731 2.61415 0
M  V30 1578 H 152.924 -4.53553 3.09162 0
M  V30 1579 H 153.185 -4.19754 1.38777 0
M  V30 1580 N 152.244 -1.26651 -0.937939 0
M  V30 1581 C 153.493 -1.11775 -1.67897 0
M  V30 1582 C 153.806 0.33794 -1.92659 0
M  V30 1583 O 155.012 0.607434 -2.64618 0
M  V30 1584 C 153.468 -1.9523 -3.02346 0
M  V30 1585 C 153.076 -3.45393 -2.8532 0
M  V30 1586 C 154.82 -1.88972 -3.80118 0
M  V30 1587 C 152.727 -4.21083 -4.15263 0
M  V30 1588 H 151.657 -0.414696 -0.629717 0
M  V30 1589 H 154.308 -1.50988 -1.04283 0
M  V30 1590 H 152.69 -1.48853 -3.66959 0
M  V30 1591 H 153.864 -3.99561 -2.29537 0
M  V30 1592 H 152.179 -3.52921 -2.20988 0
M  V30 1593 H 154.776 -2.42805 -4.76392 0
M  V30 1594 H 155.119 -0.86113 -4.07296 0
M  V30 1595 H 155.652 -2.33189 -3.22285 0
M  V30 1596 H 152.391 -5.24425 -3.93267 0
M  V30 1597 H 151.911 -3.71695 -4.70747 0
M  V30 1598 H 153.59 -4.29706 -4.83696 0
M  V30 1599 N 153.722 1.14298 -1.08507 0
M  V30 1600 C 154.632 2.23027 -0.727753 0
M  V30 1601 C 155.648 1.71952 0.26619 0
M  V30 1602 O 156.824 2.011 0.109882 0
M  V30 1603 C 153.889 3.46403 -0.143541 0
M  V30 1604 C 152.95 4.12413 -1.19223 0
M  V30 1605 C 152.183 5.29899 -0.635798 0
M  V30 1606 O 152.406 5.67796 0.544393 0
M  V30 1607 O 151.34 5.85717 -1.38634 0
M  V30 1608 H 155.166 2.55945 -1.63481 0
M  V30 1609 H 152.751 1.22248 -0.858817 0
M  V30 1610 H 154.633 4.21018 0.179404 0
M  V30 1611 H 153.308 3.15206 0.736659 0
M  V30 1612 H 152.215 3.39667 -1.56772 0
M  V30 1613 H 153.548 4.47718 -2.04474 0
M  V30 1614 N 155.201 0.870884 1.31352 0
M  V30 1615 C 156.617 0.562932 1.49343 0
M  V30 1616 C 156.817 -0.902725 1.80148 0
M  V30 1617 O 155.873 -1.68484 1.88067 0
M  V30 1618 C 157.186 1.46393 2.62659 0
M  V30 1619 C 158.734 1.46607 2.76542 0
M  V30 1620 C 159.209 2.35266 3.92955 0
M  V30 1621 N 160.7 2.33151 4.00243 0
M  V30 1622 C 161.435 2.98471 4.89594 0
M  V30 1623 N 160.931 3.72964 5.8384 0
M  V30 1624 N 162.724 2.87775 4.82848 0
M  V30 1625 H 154.875 1.81923 1.09626 0
M  V30 1626 H 157.138 0.777934 0.541777 0
M  V30 1627 H 156.844 2.50689 2.46674 0
M  V30 1628 H 156.718 1.16314 3.58819 0
M  V30 1629 H 159.105 0.43069 2.9194 0
M  V30 1630 H 159.186 1.8071 1.81046 0
M  V30 1631 H 158.83 3.38881 3.78315 0
M  V30 1632 H 158.76 1.98487 4.87761 0
M  V30 1633 H 161.251 1.79006 3.32814 0
M  V30 1634 H 161.564 4.19932 6.4875 0
M  V30 1635 H 159.909 3.77073 5.83816 0
M  V30 1636 H 163.1 2.29116 4.08195 0
M  V30 1637 H 163.273 3.38961 5.52277 0
M  V30 1638 N 156.679 -1.44442 0.630414 0
M  V30 1639 C 157.589 -2.34476 -0.0761693 0
M  V30 1640 C 158.605 -1.52576 -0.836449 0
M  V30 1641 O 159.781 -1.85307 -0.788874 0
M  V30 1642 C 156.846 -3.30545 -1.04599 0
M  V30 1643 C 155.907 -4.28352 -0.28516 0
M  V30 1644 C 155.14 -5.19831 -1.20878 0
M  V30 1645 O 155.363 -5.15223 -2.44747 0
M  V30 1646 O 154.297 -5.97892 -0.693491 0
M  V30 1647 H 158.123 -2.96345 0.664324 0
M  V30 1648 H 155.708 -1.44203 0.39061 0
M  V30 1649 H 157.59 -3.89681 -1.60396 0
M  V30 1650 H 156.265 -2.7121 -1.76711 0
M  V30 1651 H 155.172 -3.72764 0.315837 0
M  V30 1652 H 156.505 -4.90605 0.395924 0
M  V30 1653 N 158.157 -0.370918 -1.53173 0
M  V30 1654 C 159.12 0.460778 -2.24521 0
M  V30 1655 C 160.12 1.00536 -1.25496 0
M  V30 1656 O 161.31 0.890266 -1.49733 0
M  V30 1657 C 158.442 1.64457 -2.98608 0
M  V30 1658 H 159.635 -0.163613 -2.99453 0
M  V30 1659 H 157.188 -0.122699 -1.55818 0
M  V30 1660 H 157.923 2.30691 -2.2793 0
M  V30 1661 H 157.708 1.26099 -3.7127 0
M  V30 1662 H 159.198 2.23384 -3.5283 0
M  V30 1663 N 159.635 1.57281 -0.100228 0
M  V30 1664 C 161.046 1.81725 0.428107 0
M  V30 1665 C 161.397 1.01619 1.67833 0
M  V30 1666 O 160.522 0.247098 2.14985 0
M  V30 1667 C 161.117 3.29617 0.78347 0
M  V30 1668 C 159.676 3.54808 1.25653 0
M  V30 1669 C 158.823 2.76118 0.255752 0
M  V30 1670 H 161.774 1.55324 -0.325608 0
M  V30 1671 H 161.795 3.4322 1.64256 0
M  V30 1672 H 161.307 3.87893 -0.12665 0
M  V30 1673 H 159.408 3.01868 2.18418 0
M  V30 1674 H 159.521 4.63443 1.21482 0
M  V30 1675 H 157.885 2.43745 0.738956 0
M  V30 1676 H 158.668 3.37145 -0.647136 0
M  V30 1677 N 161.113 -0.173488 1.56642 0
M  V30 1678 C 162.361 -0.888706 1.81512 0
M  V30 1679 C 162.682 -1.82875 0.676872 0
M  V30 1680 O 161.952 -1.93536 -0.303414 0
M  V30 1681 H 160.532 -0.331164 0.669582 0
M  V30 1682 H 163.194 -0.173823 1.94123 0
M  V30 1683 H 162.29 -1.46691 2.75478 0
M  V30 1684 N 162.591 -1.51276 -0.441967 0
M  V30 1685 C 163.524 -1.66933 -1.55591 0
M  V30 1686 C 164.502 -0.516958 -1.54163 0
M  V30 1687 O 165.686 -0.740209 -1.73358 0
M  V30 1688 C 162.813 -1.67866 -2.94174 0
M  V30 1689 C 161.859 -2.89013 -3.13646 0
M  V30 1690 S 162.692 -4.49897 -2.90436 0
M  V30 1691 C 163.848 -4.53568 -4.31308 0
M  V30 1692 H 164.081 -2.61155 -1.42076 0
M  V30 1693 H 161.614 -1.40902 -0.631341 0
M  V30 1694 H 163.572 -1.69089 -3.74058 0
M  V30 1695 H 162.233 -0.748296 -3.05056 0
M  V30 1696 H 161.426 -2.86054 -4.14957 0
M  V30 1697 H 161.028 -2.85509 -2.4158 0
M  V30 1698 H 163.32 -4.28924 -5.24434 0
M  V30 1699 H 164.263 -5.55355 -4.39303 0
M  V30 1700 H 164.671 -3.82943 -4.14747 0
M  V30 1701 N 164.069 0.697108 -1.41344 0
M  V30 1702 C 165.032 1.79281 -1.42797 0
M  V30 1703 C 166.032 1.57607 -0.318837 0
M  V30 1704 O 167.222 1.64309 -0.578642 0
M  V30 1705 C 164.354 3.17632 -1.23785 0
M  V30 1706 H 165.547 1.79385 -2.40335 0
M  V30 1707 H 163.1 0.904582 -1.27464 0
M  V30 1708 H 163.835 3.23167 -0.270814 0
M  V30 1709 H 163.62 3.34765 -2.04144 0
M  V30 1710 H 165.11 3.97617 -1.27633 0
M  V30 1711 N 165.547 1.27147 0.931209 0
M  V30 1712 C 166.477 1.12081 2.04842 0
M  V30 1713 C 167.458 0.0232364 1.70084 0
M  V30 1714 O 168.643 0.197085 1.93197 0
M  V30 1715 C 165.773 0.76354 3.38803 0
M  V30 1716 C 164.727 1.81396 3.87659 0
M  V30 1717 C 164.053 1.31075 5.18385 0
M  V30 1718 C 165.353 3.21739 4.11438 0
M  V30 1719 H 167.047 2.05537 2.17703 0
M  V30 1720 H 164.593 0.989603 1.04608 0
M  V30 1721 H 166.546 0.644982 4.16435 0
M  V30 1722 H 165.27 -0.206727 3.25945 0
M  V30 1723 H 163.929 1.92136 3.12217 0
M  V30 1724 H 163.577 0.330037 5.01916 0
M  V30 1725 H 163.277 2.013 5.52044 0
M  V30 1726 H 164.801 1.20506 5.98591 0
M  V30 1727 H 166.215 3.14019 4.79651 0
M  V30 1728 H 164.612 3.89644 4.56397 0
M  V30 1729 H 165.682 3.67054 3.16859 0
M  V30 1730 N 167.025 -1.13721 1.09112 0
M  V30 1731 C 167.988 -2.17222 0.731241 0
M  V30 1732 C 168.988 -1.59035 -0.237566 0
M  V30 1733 O 170.178 -1.74192 -0.0161704 0
M  V30 1734 C 167.31 -3.40804 0.0808443 0
M  V30 1735 H 168.503 -2.50573 1.64783 0
M  V30 1736 H 166.056 -1.28493 0.889897 0
M  V30 1737 H 166.791 -3.1304 -0.847127 0
M  V30 1738 H 166.576 -3.84306 0.777896 0
M  V30 1739 H 168.066 -4.1731 -0.155657 0
M  V30 1740 N 168.503 -0.877838 -1.30888 0
M  V30 1741 C 169.436 -0.283995 -2.26426 0
M  V30 1742 C 170.414 0.591361 -1.51465 0
M  V30 1743 O 171.598 0.54304 -1.80509 0
M  V30 1744 C 168.725 0.597129 -3.33395 0
M  V30 1745 C 167.771 -0.207937 -4.25993 0
M  V30 1746 S 168.604 -1.59158 -5.11301 0
M  V30 1747 C 169.76 -0.716791 -6.21782 0
M  V30 1748 H 169.993 -1.09383 -2.76446 0
M  V30 1749 H 167.526 -0.676828 -1.38775 0
M  V30 1750 H 169.484 1.09978 -3.95493 0
M  V30 1751 H 168.145 1.38099 -2.82113 0
M  V30 1752 H 167.338 0.464163 -5.01858 0
M  V30 1753 H 166.94 -0.642963 -3.68432 0
M  V30 1754 H 169.232 0.0692833 -6.77465 0
M  V30 1755 H 170.175 -1.44682 -6.93161 0
M  V30 1756 H 170.583 -0.280855 -5.63801 0
M  V30 1757 N 169.982 1.44106 -0.638065 0
M  V30 1758 C 170.912 2.33448 0.0494287 0
M  V30 1759 C 171.893 1.48606 0.827672 0
M  V30 1760 O 173.078 1.77308 0.792173 0
M  V30 1761 C 170.208 3.31771 1.02691 0
M  V30 1762 C 169.162 4.26485 0.359823 0
M  V30 1763 C 168.488 5.14729 1.44769 0
M  V30 1764 C 169.788 5.17056 -0.738296 0
M  V30 1765 H 171.482 2.91183 -0.696636 0
M  V30 1766 H 169.028 1.40014 -0.336456 0
M  V30 1767 H 170.981 3.93161 1.51666 0
M  V30 1768 H 169.705 2.7226 1.80395 0
M  V30 1769 H 168.364 3.66437 -0.10934 0
M  V30 1770 H 168.012 4.51566 2.21578 0
M  V30 1771 H 167.712 5.78913 1.00668 0
M  V30 1772 H 169.236 5.78991 1.93911 0
M  V30 1773 H 170.65 5.72342 -0.331354 0
M  V30 1774 H 169.047 5.89879 -1.10286 0
M  V30 1775 H 170.117 4.57652 -1.60258 0
M  V30 1776 N 171.46 0.379036 1.52974 0
M  V30 1777 C 172.393 -0.504932 2.22544 0
M  V30 1778 C 173.371 -1.0723 1.22231 0
M  V30 1779 O 174.555 -1.12589 1.51182 0
M  V30 1780 C 171.682 -1.69794 2.93066 0
M  V30 1781 C 170.728 -1.25678 4.07563 0
M  V30 1782 S 171.561 -0.246852 5.34931 0
M  V30 1783 C 172.717 -1.44588 6.08971 0
M  V30 1784 H 172.95 0.0858666 2.97176 0
M  V30 1785 H 170.483 0.163183 1.53535 0
M  V30 1786 H 172.441 -2.38219 3.34308 0
M  V30 1787 H 171.102 -2.26002 2.18133 0
M  V30 1788 H 170.295 -2.14725 4.5597 0
M  V30 1789 H 169.897 -0.651584 3.6828 0
M  V30 1790 H 172.189 -2.37469 6.34519 0
M  V30 1791 H 173.132 -1.00292 7.00962 0
M  V30 1792 H 173.54 -1.65804 5.39601 0
M  V30 1793 N 172.938 -1.57226 0.108567 0
M  V30 1794 C 174.186 -1.94448 -0.550853 0
M  V30 1795 C 174.507 -0.992074 -1.67878 0
M  V30 1796 O 173.777 -0.0465 -1.95845 0
M  V30 1797 H 172.357 -0.717897 -0.206479 0
M  V30 1798 H 175.019 -1.94112 0.175062 0
M  V30 1799 H 174.115 -2.97218 -0.952259 0
M  V30 1800 N 174.416 0.165178 -1.56732 0
M  V30 1801 C 175.641 0.900253 -1.86843 0
M  V30 1802 C 176.066 1.74766 -0.695596 0
M  V30 1803 O 175.424 1.77786 0.35522 0
M  V30 1804 C 175.472 1.74777 -3.15413 0
M  V30 1805 O 174.576 2.85007 -2.98068 0
M  V30 1806 H 173.917 0.251832 -0.614391 0
M  V30 1807 H 176.447 0.161468 -2.03962 0
M  V30 1808 H 176.457 2.14646 -3.46974 0
M  V30 1809 H 175.132 1.12537 -4.00385 0
M  V30 1810 H 173.709 2.48676 -2.77875 0
M  V30 1811 N 175.894 1.51508 0.433938 0
M  V30 1812 C 176.824 1.76016 1.53429 0
M  V30 1813 C 177.805 0.610112 1.58782 0
M  V30 1814 O 178.99 0.853177 1.74455 0
M  V30 1815 C 176.12 1.88831 2.9148 0
M  V30 1816 C 175.074 3.04288 3.00987 0
M  V30 1817 C 174.4 3.0229 4.4105 0
M  V30 1818 C 175.7 4.44193 2.74754 0
M  V30 1819 H 177.394 2.68152 1.33171 0
M  V30 1820 H 174.94 1.29035 0.639214 0
M  V30 1821 H 176.893 2.04559 3.6842 0
M  V30 1822 H 175.617 0.933455 3.12976 0
M  V30 1823 H 174.276 2.8827 2.26486 0
M  V30 1824 H 173.924 2.04576 4.59519 0
M  V30 1825 H 173.624 3.79822 4.4834 0
M  V30 1826 H 175.148 3.20116 5.1996 0
M  V30 1827 H 176.562 4.60544 3.41426 0
M  V30 1828 H 174.959 5.23457 2.9345 0
M  V30 1829 H 176.029 4.53996 1.70339 0
M  V30 1830 N 177.372 -0.689602 1.41712 0
M  V30 1831 C 178.32 -1.82475 1.44242 0
M  V30 1832 C 179.314 -1.66354 0.319774 0
M  V30 1833 O 180.52 -1.73143 0.492089 0
M  V30 1834 H 176.895 -0.601416 0.451445 0
M  V30 1835 H 178.866 -1.77458 2.39899 0
M  V30 1836 C 177.615 -3.20535 1.3473 0
M  V30 1837 H 176.938 -3.33559 2.20405 0
M  V30 1838 H 178.378 -4.00023 1.40562 0
M  V30 1839 C 176.837 -3.36846 0.0603281 0
M  V30 1840 O 177.367 -3.91656 -0.892663 0
M  V30 1841 N 175.573 -2.90595 -0.0177039 0
M  V30 1842 H 175.12 -2.46178 0.758572 0
M  V30 1843 H 175.078 -3.01886 -0.878201 0
M  V30 1844 N 178.85 -1.27639 -0.924453 0
M  V30 1845 C 180.096 -1.14336 -1.67497 0
M  V30 1846 C 180.429 0.309465 -1.91718 0
M  V30 1847 O 179.704 1.22608 -1.50989 0
M  V30 1848 C 179.987 -1.93096 -3.0395 0
M  V30 1849 C 179.84 -3.46381 -2.8695 0
M  V30 1850 C 181.159 -1.73798 -4.0433 0
M  V30 1851 H 178.278 -0.416728 -0.607871 0
M  V30 1852 H 180.92 -1.56832 -1.07256 0
M  V30 1853 H 179.07 -1.56982 -3.55372 0
M  V30 1854 H 180.742 -3.92343 -2.42621 0
M  V30 1855 H 178.985 -3.72557 -2.22225 0
M  V30 1856 H 179.656 -3.96735 -3.83804 0
M  V30 1857 H 182.132 -2.05293 -3.61931 0
M  V30 1858 H 181.008 -2.31294 -4.97789 0
M  V30 1859 H 181.269 -0.686725 -4.36734 0
M  V30 1860 N 180.328 1.1314 -1.09713 0
M  V30 1861 C 181.556 1.88321 -0.856898 0
M  V30 1862 C 181.971 1.79276 0.592073 0
M  V30 1863 O 181.328 1.16142 1.40774 0
M  V30 1864 C 181.379 3.37812 -1.28706 0
M  V30 1865 O 181.1 3.46627 -2.67921 0
M  V30 1866 C 182.601 4.29952 -1.07964 0
M  V30 1867 H 179.821 0.596094 -0.308079 0
M  V30 1868 H 182.365 1.43205 -1.45988 0
M  V30 1869 H 180.52 3.805 -0.727912 0
M  V30 1870 H 180.934 4.39579 -2.8613 0
M  V30 1871 H 182.408 5.33159 -1.42986 0
M  V30 1872 H 182.885 4.39196 -0.0176577 0
M  V30 1873 H 183.491 3.93036 -1.62489 0
M  V30 1874 N 181.806 0.884767 1.30421 0
M  V30 1875 C 183.217 0.553656 1.78302 0
M  V30 1876 C 183.568 -0.930153 1.7275 0
M  V30 1877 O 182.693 -1.72681 1.30423 0
M  V30 1878 C 183.288 0.998234 3.2376 0
M  V30 1879 C 181.847 0.71854 3.69478 0
M  V30 1880 C 180.994 1.18132 2.50879 0
M  V30 1881 H 183.945 1.06901 1.17294 0
M  V30 1882 H 183.966 0.327118 3.79091 0
M  V30 1883 H 183.478 2.0782 3.27769 0
M  V30 1884 H 181.579 -0.349444 3.70958 0
M  V30 1885 H 181.692 1.30595 4.60958 0
M  V30 1886 H 180.056 0.600669 2.47516 0
M  V30 1887 H 180.839 2.26902 2.57624 0
M  V30 1888 N 183.284 -1.43765 0.645699 0
M  V30 1889 C 184.214 -2.33471 -0.0370477 0
M  V30 1890 C 185.195 -1.49042 -0.819779 0
M  V30 1891 O 186.38 -1.77726 -0.782758 0
M  V30 1892 C 183.51 -3.32311 -1.0093 0
M  V30 1893 C 182.464 -4.2667 -0.337201 0
M  V30 1894 C 181.79 -5.1549 -1.42037 0
M  V30 1895 C 183.09 -5.16657 0.765706 0
M  V30 1896 H 184.784 -2.90809 0.712069 0
M  V30 1897 H 182.33 -1.39834 0.343876 0
M  V30 1898 H 184.283 -3.9396 -1.49578 0
M  V30 1899 H 183.007 -2.73213 -1.78948 0
M  V30 1900 H 181.666 -3.66374 0.128771 0
M  V30 1901 H 181.314 -4.52735 -2.1918 0
M  V30 1902 H 181.014 -5.79438 -0.975966 0
M  V30 1903 H 182.538 -5.80012 -1.90838 0
M  V30 1904 H 183.952 -5.72158 0.361702 0
M  V30 1905 H 182.349 -5.89286 1.13413 0
M  V30 1906 H 183.419 -4.56796 1.62683 0
M  V30 1907 N 184.763 -0.387143 -1.52771 0
M  V30 1908 C 186.011 0.195349 -2.01154 0
M  V30 1909 C 186.332 1.475 -1.27549 0
M  V30 1910 O 185.602 1.91878 -0.394924 0
M  V30 1911 H 184.182 0.075178 -0.743207 0
M  V30 1912 H 186.844 -0.518337 -1.87881 0
M  V30 1913 H 185.94 0.407096 -3.09434 0
M  V30 1914 N 186.241 1.57166 -0.116904 0
M  V30 1915 C 187.174 2.10912 0.871291 0
M  V30 1916 C 188.152 1.025 1.26224 0
M  V30 1917 O 189.336 1.3014 1.36366 0
M  V30 1918 C 186.463 2.6041 2.16574 0
M  V30 1919 C 185.509 3.80687 1.92302 0
M  V30 1920 S 186.342 5.23199 1.14119 0
M  V30 1921 C 187.498 5.76064 2.44748 0
M  V30 1922 H 187.731 2.94401 0.414138 0
M  V30 1923 H 185.264 1.54096 0.096829 0
M  V30 1924 H 187.222 2.89583 2.9095 0
M  V30 1925 H 185.883 1.77106 2.59408 0
M  V30 1926 H 185.076 4.13462 2.8821 0
M  V30 1927 H 184.678 3.5212 1.26047 0
M  V30 1928 H 186.97 5.8566 3.406 0
M  V30 1929 H 187.913 6.74184 2.16521 0
M  V30 1930 H 188.321 5.04117 2.54019 0
M  V30 1931 N 187.719 -0.156864 1.56817 0
M  V30 1932 C 188.649 -1.19589 2.00551 0
M  V30 1933 C 189.63 -1.4536 0.883426 0
M  V30 1934 O 190.815 -1.56449 1.15054 0
M  V30 1935 C 187.945 -2.53143 2.37773 0
M  V30 1936 C 186.899 -2.41913 3.53075 0
M  V30 1937 C 186.225 -3.80088 3.76081 0
M  V30 1938 C 187.525 -1.91157 4.86062 0
M  V30 1939 H 189.219 -0.832293 2.87599 0
M  V30 1940 H 186.765 -0.398918 1.38364 0
M  V30 1941 H 188.718 -3.26047 2.66967 0
M  V30 1942 H 187.442 -2.91319 1.4765 0
M  V30 1943 H 186.101 -1.71462 3.24031 0
M  V30 1944 H 185.749 -4.15683 2.83225 0
M  V30 1945 H 185.449 -3.73439 4.53671 0
M  V30 1946 H 186.973 -4.54556 4.0769 0
M  V30 1947 H 188.387 -2.53846 5.14038 0
M  V30 1948 H 186.784 -1.95422 5.67389 0
M  V30 1949 H 187.854 -0.866673 4.77092 0
M  V30 1950 N 189.197 -1.51736 -0.425897 0
M  V30 1951 C 190.422 -1.69082 -1.20108 0
M  V30 1952 C 190.847 -0.392398 -1.83962 0
M  V30 1953 O 190.205 0.64858 -1.69302 0
M  V30 1954 C 190.253 -2.81604 -2.25237 0
M  V30 1955 O 189.357 -2.46004 -3.30992 0
M  V30 1956 H 188.698 -0.563408 -0.35138 0
M  V30 1957 H 191.228 -1.98358 -0.501512 0
M  V30 1958 H 191.238 -3.06025 -2.69838 0
M  V30 1959 H 189.913 -3.75817 -1.78142 0
M  V30 1960 H 188.49 -2.32195 -2.91787 0
M  V30 1961 N 190.675 0.682077 -1.42076 0
M  V30 1962 C 192.091 0.994324 -1.24841 0
M  V30 1963 C 192.291 2.0096 -0.147389 0
M  V30 1964 O 191.347 2.47822 0.483782 0
M  V30 1965 C 192.66 1.50607 -2.60265 0
M  V30 1966 C 194.208 1.62421 -2.6756 0
M  V30 1967 C 194.683 2.16994 -4.03333 0
M  V30 1968 N 196.174 2.24337 -4.0525 0
M  V30 1969 C 196.909 2.67621 -5.07116 0
M  V30 1970 N 196.405 3.1041 -6.19368 0
M  V30 1971 N 198.198 2.67305 -4.94474 0
M  V30 1972 H 190.349 0.00973908 -2.12398 0
M  V30 1973 H 192.612 0.0668593 -0.945639 0
M  V30 1974 H 192.318 0.834583 -3.41654 0
M  V30 1975 H 192.192 2.48602 -2.83684 0
M  V30 1976 H 194.579 2.28678 -1.86521 0
M  V30 1977 H 194.66 0.629352 -2.47937 0
M  V30 1978 H 194.304 1.51349 -4.84826 0
M  V30 1979 H 194.234 3.17258 -4.20304 0
M  V30 1980 H 196.725 1.94158 -3.24209 0
M  V30 1981 H 197.038 3.42103 -6.92954 0
M  V30 1982 H 195.383 3.08286 -6.22884 0
M  V30 1983 H 198.574 2.33233 -4.05857 0
M  V30 1984 H 198.747 3.00718 -5.73997 0
M  V30 1985 N 192.153 1.28127 0.917671 0
M  V30 1986 C 193.564 1.13622 1.48145 0
M  V30 1987 C 193.915 -0.275207 1.9426 0
M  V30 1988 O 193.04 -1.1691 1.82102 0
M  V30 1989 C 193.635 2.05648 2.69248 0
M  V30 1990 C 192.194 1.95219 3.21818 0
M  V30 1991 C 191.341 1.97618 1.94532 0
M  V30 1992 H 194.292 1.40874 0.730772 0
M  V30 1993 H 194.313 1.61818 3.44377 0
M  V30 1994 H 193.825 3.08365 2.35653 0
M  V30 1995 H 191.926 0.955244 3.60147 0
M  V30 1996 H 192.039 2.81976 3.87333 0
M  V30 1997 H 190.403 1.41973 2.11461 0
M  V30 1998 H 191.186 3.02007 1.63238 0
M  V30 1999 N 193.631 -1.12557 1.10312 0
M  V30 2000 C 194.877 -1.84311 0.846011 0
M  V30 2001 C 195.21 -1.83805 -0.626859 0
M  V30 2002 O 194.485 -1.28268 -1.46211 0
M  V30 2003 C 194.768 -3.32048 1.39341 0
M  V30 2004 C 194.621 -3.41016 2.93305 0
M  V30 2005 C 195.94 -4.27764 1.03468 0
M  V30 2006 H 193.059 -0.669192 0.30879 0
M  V30 2007 H 195.701 -1.32057 1.36605 0
M  V30 2008 H 193.851 -3.76678 0.951087 0
M  V30 2009 H 195.523 -3.05031 3.46055 0
M  V30 2010 H 193.766 -2.81603 3.29973 0
M  V30 2011 H 194.437 -4.44948 3.26689 0
M  V30 2012 H 196.913 -3.91253 1.41633 0
M  V30 2013 H 195.789 -5.29549 1.44463 0
M  V30 2014 H 196.05 -4.42064 -0.0560404 0
M  V30 2015 N 195.109 -0.891671 -1.2995 0
M  V30 2016 C 196.349 -0.520296 -1.97667 0
M  V30 2017 C 196.713 0.914797 -1.68806 0
M  V30 2018 O 197.914 1.39263 -2.29911 0
M  V30 2019 C 196.185 -0.795222 -3.48441 0
M  V30 2020 S 197.744 -0.526953 -4.35624 0
M  V30 2021 H 194.562 -0.19333 -0.684211 0
M  V30 2022 H 197.164 -1.15238 -1.57926 0
M  V30 2023 H 195.868 -1.83805 -3.66938 0
M  V30 2024 H 195.399 -0.15095 -3.9311 0
M  V30 2025 H 197.414 0.631533 -4.92165 0
M  V30 2026 N 196.587 1.43421 -0.653314 0
M  V30 2027 C 197.835 2.01414 -0.166415 0
M  V30 2028 C 198.156 1.51803 1.22397 0
M  V30 2029 O 197.426 0.730693 1.81763 0
M  V30 2030 H 196.006 0.744703 -0.0585319 0
M  V30 2031 H 198.668 1.75629 -0.845003 0
M  V30 2032 H 197.764 3.11734 -0.151111 0
M  V30 2033 N 198.065 0.39524 1.52563 0
M  V30 2034 C 199.314 -0.186321 2.00838 0
M  V30 2035 C 199.627 -1.47402 1.28577 0
M  V30 2036 O 200.833 -2.13599 1.67593 0
M  V30 2037 C 199.289 -0.382595 3.57861 0
M  V30 2038 C 198.897 0.892202 4.39026 0
M  V30 2039 C 200.641 -0.9202 4.14406 0
M  V30 2040 C 198.548 0.66388 5.87662 0
M  V30 2041 H 197.478 -0.0734041 0.750418 0
M  V30 2042 H 200.129 0.518552 1.76021 0
M  V30 2043 H 198.511 -1.14946 3.7895 0
M  V30 2044 H 199.685 1.66414 4.29701 0
M  V30 2045 H 198 1.35519 3.9373 0
M  V30 2046 H 200.597 -1.10683 5.23119 0
M  V30 2047 H 200.94 -1.89096 3.70875 0
M  V30 2048 H 201.473 -0.212751 3.97231 0
M  V30 2049 H 198.212 1.6058 6.35527 0
M  V30 2050 H 197.732 -0.0690193 5.9976 0
M  V30 2051 H 199.411 0.300699 6.46301 0
M  V30 2052 N 199.544 -1.57102 0.125237 0
M  V30 2053 C 200.96 -1.57915 -0.231322 0
M  V30 2054 C 201.16 -1.13833 -1.66266 0
M  V30 2055 O 200.216 -0.828581 -2.38518 0
M  V30 2056 C 201.529 -3.00699 0.00766489 0
M  V30 2057 C 203.077 -3.12947 -0.0577483 0
M  V30 2058 C 203.552 -4.57742 0.153626 0
M  V30 2059 N 205.043 -4.63092 0.0998073 0
M  V30 2060 C 205.778 -5.72905 0.238174 0
M  V30 2061 N 205.274 -6.91445 0.433057 0
M  V30 2062 N 207.067 -5.6182 0.177308 0
M  V30 2063 H 199.218 -1.84055 1.06007 0
M  V30 2064 H 201.481 -0.850905 0.417929 0
M  V30 2065 H 201.187 -3.3726 0.997431 0
M  V30 2066 H 201.061 -3.70236 -0.721452 0
M  V30 2067 H 203.448 -2.7624 -1.03804 0
M  V30 2068 H 203.529 -2.4594 0.70335 0
M  V30 2069 H 203.173 -4.95149 1.13092 0
M  V30 2070 H 203.103 -5.22848 -0.627534 0
M  V30 2071 H 205.594 -3.77871 -0.047051 0
M  V30 2072 H 205.907 -7.70985 0.529332 0
M  V30 2073 H 204.252 -6.93415 0.469109 0
M  V30 2074 H 207.443 -4.68093 0.0259748 0
M  V30 2075 H 207.616 -6.47357 0.288582 0
M  V30 2076 N 201.022 0.148545 -1.56898 0
M  V30 2077 C 202.27 0.859717 -1.82902 0
M  V30 2078 C 202.591 1.81775 -0.70588 0
M  V30 2079 O 201.861 1.93994 0.272586 0
M  V30 2080 H 200.441 0.320469 -0.674766 0
M  V30 2081 H 203.103 0.142918 -1.94375 0
M  V30 2082 H 202.199 1.4229 -2.77777 0
M  V30 2083 N 202.5 1.5196 0.417844 0
M  V30 2084 C 203.447 1.74678 1.50852 0
M  V30 2085 C 204.417 0.588947 1.55308 0
M  V30 2086 O 205.602 0.825544 1.72016 0
M  V30 2087 C 202.742 1.89544 2.88387 0
M  V30 2088 C 201.855 3.17166 2.93309 0
M  V30 2089 C 200.99 3.22513 4.22088 0
M  V30 2090 C 200.029 4.44372 4.20951 0
M  V30 2091 N 199.166 4.47161 5.41287 0
M  V30 2092 H 204.006 2.67768 1.30783 0
M  V30 2093 H 201.543 1.32689 0.63498 0
M  V30 2094 H 203.501 1.96146 3.68216 0
M  V30 2095 H 202.131 0.998424 3.06971 0
M  V30 2096 H 201.183 3.19778 2.06024 0
M  V30 2097 H 202.495 4.07021 2.88332 0
M  V30 2098 H 201.649 3.28139 5.10303 0
M  V30 2099 H 200.388 2.30581 4.29748 0
M  V30 2100 H 199.393 4.38902 3.31127 0
M  V30 2101 H 200.618 5.3759 4.14938 0
M  V30 2102 H 198.564 3.58108 5.49632 0
M  V30 2103 H 198.481 5.3085 5.3827 0
M  V30 2104 H 199.749 4.57005 6.3148 0
M  V30 2105 N 203.978 -0.674533 1.42435 0
M  V30 2106 C 205.206 -1.46283 1.46317 0
M  V30 2107 C 205.621 -1.88653 0.0745836 0
M  V30 2108 O 204.978 -1.58151 -0.91074 0
M  V30 2109 C 205.029 -2.71178 2.3905 0
M  V30 2110 O 204.75 -2.30586 3.72507 0
M  V30 2111 C 206.251 -3.64738 2.51955 0
M  V30 2112 H 203.471 -0.450104 0.497642 0
M  V30 2113 H 206.015 -0.828792 1.86953 0
M  V30 2114 H 204.17 -3.3077 2.01667 0
M  V30 2115 H 204.584 -3.11241 4.22172 0
M  V30 2116 H 206.058 -4.49096 3.20962 0
M  V30 2117 H 206.535 -4.10656 1.55752 0
M  V30 2118 H 207.141 -3.11038 2.90061 0
M  V30 2119 N 205.456 -1.28612 -0.910864 0
M  V30 2120 C 206.386 -1.15326 -2.03032 0
M  V30 2121 C 207.367 -0.0502924 -1.70026 0
M  V30 2122 O 208.552 -0.227797 -1.92859 0
M  V30 2123 C 205.682 -0.817343 -3.37545 0
M  V30 2124 C 204.636 -1.8754 -3.84724 0
M  V30 2125 C 203.962 -1.39305 -5.16235 0
M  V30 2126 C 205.262 -3.28244 -4.06267 0
M  V30 2127 H 206.956 -2.08975 -2.14406 0
M  V30 2128 H 204.502 -1.00612 -1.03021 0
M  V30 2129 H 206.455 -0.711151 -4.15356 0
M  V30 2130 H 205.179 0.154846 -3.26233 0
M  V30 2131 H 203.838 -1.97079 -3.09121 0
M  V30 2132 H 203.486 -0.409846 -5.01328 0
M  V30 2133 H 203.186 -2.10057 -5.48771 0
M  V30 2134 H 204.71 -1.30014 -5.96598 0
M  V30 2135 H 206.124 -3.21611 -4.74594 0
M  V30 2136 H 204.521 -3.96855 -4.5014 0
M  V30 2137 H 205.591 -3.72048 -3.10979 0
M  V30 2138 N 206.934 1.1197 -1.10907 0
M  V30 2139 C 208.183 1.82947 -0.849302 0
M  V30 2140 C 208.496 1.85275 0.627112 0
M  V30 2141 O 209.702 2.52296 1.00295 0
M  V30 2142 C 208.158 3.28529 -1.46959 0
M  V30 2143 C 207.766 3.34546 -2.97965 0
M  V30 2144 C 209.51 4.04443 -1.28942 0
M  V30 2145 C 207.417 4.74491 -3.53004 0
M  V30 2146 H 206.347 0.685477 -0.314065 0
M  V30 2147 H 208.998 1.2604 -1.33365 0
M  V30 2148 H 207.38 3.85333 -0.912917 0
M  V30 2149 H 208.554 2.87654 -3.59989 0
M  V30 2150 H 206.869 2.72108 -3.15192 0
M  V30 2151 H 209.466 5.07787 -1.67502 0
M  V30 2152 H 209.809 4.15656 -0.231456 0
M  V30 2153 H 210.342 3.5401 -1.81443 0
M  V30 2154 H 207.081 4.68474 -4.58489 0
M  V30 2155 H 206.601 5.21816 -2.9575 0
M  V30 2156 H 208.28 5.4344 -3.51115 0
M  V30 2157 N 208.412 0.89855 1.29475 0
M  V30 2158 C 209.661 0.519863 1.94885 0
M  V30 2159 C 209.974 -0.9383 1.71625 0
M  V30 2160 O 211.18 -1.42445 2.31131 0
M  V30 2161 C 209.636 0.878836 3.49005 0
M  V30 2162 C 209.244 2.35569 3.81066 0
M  V30 2163 C 210.988 0.570004 4.20656 0
M  V30 2164 C 208.895 2.65558 5.28425 0
M  V30 2165 H 207.825 0.190692 0.729488 0
M  V30 2166 H 210.476 1.09539 1.47219 0
M  V30 2167 H 208.858 0.232253 3.95318 0
M  V30 2168 H 210.032 3.04773 3.45616 0
M  V30 2169 H 208.347 2.63343 3.22552 0
M  V30 2170 H 210.944 0.770925 5.29113 0
M  V30 2171 H 211.287 -0.491404 4.1339 0
M  V30 2172 H 211.82 1.17438 3.8007 0
M  V30 2173 H 208.559 3.70493 5.40754 0
M  V30 2174 H 208.079 2.00977 5.65127 0
M  V30 2175 H 209.758 2.51765 5.96006 0
M  V30 2176 N 209.89 -1.43072 0.660911 0
M  V30 2177 C 210.838 -2.32569 -0.0378199 0
M  V30 2178 C 211.832 -1.49046 -0.805092 0
M  V30 2179 O 213.038 -1.65206 -0.714624 0
M  V30 2180 H 209.413 -0.75136 -0.031019 0
M  V30 2181 H 211.384 -2.89216 0.734609 0
M  V30 2182 C 210.133 -3.33453 -0.985124 0
M  V30 2183 H 209.456 -3.97752 -0.404147 0
M  V30 2184 H 210.896 -3.98691 -1.44297 0
M  V30 2185 C 209.355 -2.64642 -2.08486 0
M  V30 2186 O 209.885 -2.46776 -3.16961 0
M  V30 2187 N 208.091 -2.23891 -1.8526 0
M  V30 2188 H 207.638 -2.38621 -0.970449 0
M  V30 2189 H 207.596 -1.78181 -2.59034 0
M  V30 2190 N 211.368 -0.403325 -1.52352 0
M  V30 2191 C 212.298 0.416205 -2.29761 0
M  V30 2192 C 213.279 1.05123 -1.33728 0
M  V30 2193 O 214.464 1.06134 -1.62632 0
M  V30 2194 C 211.594 1.53624 -3.11475 0
M  V30 2195 C 210.548 1.02653 -4.15507 0
M  V30 2196 C 209.874 2.23971 -4.85532 0
M  V30 2197 C 211.174 0.08463 -5.22231 0
M  V30 2198 H 212.868 -0.229701 -2.98518 0
M  V30 2199 H 210.414 -0.111913 -1.43564 0
M  V30 2200 H 212.367 2.1165 -3.64393 0
M  V30 2201 H 211.091 2.20994 -2.40477 0
M  V30 2202 H 209.75 0.46871 -3.63591 0
M  V30 2203 H 209.398 2.89883 -4.11068 0
M  V30 2204 H 209.098 1.90521 -5.55856 0
M  V30 2205 H 210.622 2.82614 -5.41259 0
M  V30 2206 H 212.036 0.573509 -5.70424 0
M  V30 2207 H 210.433 -0.160783 -5.99885 0
M  V30 2208 H 211.503 -0.86237 -4.7717 0
M  V30 2209 N 212.846 1.57033 -0.133567 0
M  V30 2210 C 214.257 1.82593 0.389464 0
M  V30 2211 C 214.608 1.05156 1.6564 0
M  V30 2212 O 213.733 0.292644 2.14412 0
M  V30 2213 C 214.328 3.31204 0.713377 0
M  V30 2214 C 212.887 3.57393 1.18098 0
M  V30 2215 C 212.034 2.76598 0.197126 0
M  V30 2216 H 214.985 1.54598 -0.358481 0
M  V30 2217 H 215.006 3.46627 1.56939 0
M  V30 2218 H 214.518 3.87537 -0.2089 0
M  V30 2219 H 212.619 3.06433 2.11966 0
M  V30 2220 H 212.732 4.65915 1.11624 0
M  V30 2221 H 211.096 2.45257 0.687088 0
M  V30 2222 H 211.879 3.35697 -0.718504 0
M  V30 2223 N 214.325 -0.140222 1.56975 0
M  V30 2224 C 215.573 -0.850005 1.83356 0
M  V30 2225 C 215.894 -1.81399 0.71551 0
M  V30 2226 O 215.164 -1.94136 -0.262294 0
M  V30 2227 H 213.744 -0.316886 0.676456 0
M  V30 2228 H 216.406 -0.132608 1.94448 0
M  V30 2229 H 215.502 -1.40814 2.78528 0
M  V30 2230 N 215.803 -1.52179 -0.40978 0
M  V30 2231 C 217.028 -1.70347 -1.18308 0
M  V30 2232 C 217.453 -0.411887 -1.83535 0
M  V30 2233 O 216.811 0.630587 -1.6998 0
M  V30 2234 C 216.859 -2.83977 -2.22238 0
M  V30 2235 O 215.963 -2.495 -3.28365 0
M  V30 2236 H 215.304 -0.567103 -0.345384 0
M  V30 2237 H 217.834 -1.98879 -0.480445 0
M  V30 2238 H 217.844 -3.0887 -2.66577 0
M  V30 2239 H 216.519 -3.77685 -1.74146 0
M  V30 2240 H 215.096 -2.35277 -2.89308 0
M  V30 2241 N 217.281 0.66697 -1.42791 0
M  V30 2242 C 218.228 1.7803 -1.4688 0
M  V30 2243 C 219.198 1.6299 -0.319919 0
M  V30 2244 O 220.383 1.83432 -0.525118 0
M  V30 2245 C 217.523 3.1611 -1.38451 0
M  V30 2246 C 216.636 3.42381 -2.63437 0
M  V30 2247 C 215.771 4.70232 -2.47094 0
M  V30 2248 C 214.81 4.89564 -3.67415 0
M  V30 2249 N 213.947 6.08661 -3.49966 0
M  V30 2250 H 218.787 1.7387 -2.42019 0
M  V30 2251 H 216.324 0.84868 -1.20149 0
M  V30 2252 H 218.282 3.95914 -1.31561 0
M  V30 2253 H 216.912 3.19374 -0.469033 0
M  V30 2254 H 215.964 2.56774 -2.80662 0
M  V30 2255 H 217.276 3.52557 -3.52853 0
M  V30 2256 H 216.43 5.5814 -2.37834 0
M  V30 2257 H 215.169 4.62353 -1.5518 0
M  V30 2258 H 214.174 4.00096 -3.77099 0
M  V30 2259 H 215.399 4.99282 -4.6032 0
M  V30 2260 H 213.345 6.0194 -2.60776 0
M  V30 2261 H 213.262 6.19733 -4.32975 0
M  V30 2262 H 214.53 6.99226 -3.44532 0
M  V30 2263 N 218.759 1.29093 0.90403 0
M  V30 2264 C 219.706 1.13853 2.00764 0
M  V30 2265 C 220.676 0.0330084 1.66067 0
M  V30 2266 O 221.861 0.199733 1.89752 0
M  V30 2267 C 219.001 0.816537 3.35301 0
M  V30 2268 C 218.114 2.00206 3.82807 0
M  V30 2269 C 217.249 1.61983 5.059 0
M  V30 2270 C 216.288 2.77143 5.45764 0
M  V30 2271 N 215.425 2.39346 6.60044 0
M  V30 2272 H 220.265 2.08276 2.13132 0
M  V30 2273 H 217.802 1.03648 1.04381 0
M  V30 2274 H 219.76 0.610557 4.12708 0
M  V30 2275 H 218.39 -0.090779 3.22672 0
M  V30 2276 H 217.442 2.31988 3.01473 0
M  V30 2277 H 218.754 2.86512 4.08304 0
M  V30 2278 H 217.908 1.37649 5.90879 0
M  V30 2279 H 216.647 0.728202 4.82233 0
M  V30 2280 H 215.652 3.02165 4.59322 0
M  V30 2281 H 216.877 3.66964 5.71414 0
M  V30 2282 H 214.823 1.52665 6.37989 0
M  V30 2283 H 214.74 3.19185 6.85315 0
M  V30 2284 H 216.008 2.1832 7.48303 0
M  V30 2285 N 220.237 -1.11381 1.11499 0
M  V30 2286 C 221.485 -1.8277 0.862524 0
M  V30 2287 C 221.806 -1.85097 -0.613534 0
M  V30 2288 O 221.076 -1.32198 -1.4457 0
M  V30 2289 H 219.656 -0.676823 0.316101 0
M  V30 2290 H 222.318 -1.34816 1.4075 0
M  V30 2291 H 221.414 -2.86614 1.23527 0
M  V30 2292 N 221.715 -0.905404 -1.28997 0
M  V30 2293 C 222.94 -0.549175 -1.99997 0
M  V30 2294 C 223.365 0.860276 -1.67275 0
M  V30 2295 O 222.723 1.57355 -0.900502 0
M  V30 2296 C 222.771 -0.755185 -3.52604 0
M  V30 2297 O 221.875 0.189692 -4.11964 0
M  V30 2298 H 221.216 -0.213899 -0.628604 0
M  V30 2299 H 223.746 -1.21856 -1.64354 0
M  V30 2300 H 223.756 -0.662045 -4.02593 0
M  V30 2301 H 222.431 -1.78271 -3.75755 0
M  V30 2302 H 221.008 0.0485257 -3.72868 0
M  V30 2303 N 223.193 1.4272 -0.668489 0
M  V30 2304 C 224.125 2.2914 0.052613 0
M  V30 2305 C 225.138 1.43339 0.771857 0
M  V30 2306 O 226.327 1.67123 0.627067 0
M  V30 2307 C 223.427 3.20618 1.09804 0
M  V30 2308 C 222.6 4.35039 0.45389 0
M  V30 2309 C 221.659 5.07282 1.39825 0
M  V30 2310 O 220.685 5.62024 0.900978 0
M  V30 2311 N 221.887 5.12206 2.73176 0
M  V30 2312 H 224.652 2.91668 -0.689209 0
M  V30 2313 H 222.213 1.53577 -0.512422 0
M  V30 2314 H 224.205 3.65815 1.73094 0
M  V30 2315 H 222.775 2.59585 1.74167 0
M  V30 2316 H 221.995 3.92567 -0.358396 0
M  V30 2317 H 223.283 5.088 0.00486972 0
M  V30 2318 H 222.681 4.6913 3.16122 0
M  V30 2319 H 221.238 5.61069 3.31729 0
M  V30 2320 N 224.671 0.411399 1.52136 0
M  V30 2321 C 225.581 -0.419774 2.30814 0
M  V30 2322 C 226.597 -1.0515 1.38634 0
M  V30 2323 O 227.773 -1.05252 1.71709 0
M  V30 2324 C 224.838 -1.52019 3.11594 0
M  V30 2325 C 223.899 -0.91129 4.19516 0
M  V30 2326 C 223.132 -1.95927 4.96436 0
M  V30 2327 O 223.355 -3.17775 4.73683 0
M  V30 2328 O 222.289 -1.56423 5.81219 0
M  V30 2329 H 226.115 0.221805 3.02889 0
M  V30 2330 H 223.7 0.174547 1.48377 0
M  V30 2331 H 225.582 -2.15898 3.61892 0
M  V30 2332 H 224.257 -2.14633 2.42311 0
M  V30 2333 H 223.164 -0.235157 3.7336 0
M  V30 2334 H 224.497 -0.32904 4.91099 0
M  V30 2335 N 226.149 -1.5696 0.141893 0
M  V30 2336 C 227.389 -1.9785 -0.513304 0
M  V30 2337 C 227.753 -1.02467 -1.62371 0
M  V30 2338 O 228.954 -1.32382 -2.33941 0
M  V30 2339 C 227.225 -3.42797 -1.01118 0
M  V30 2340 S 228.784 -4.05709 -1.67169 0
M  V30 2341 H 225.602 -0.691318 -0.166135 0
M  V30 2342 H 228.204 -1.94114 0.232398 0
M  V30 2343 H 226.908 -4.0995 -0.192179 0
M  V30 2344 H 226.439 -3.50235 -1.79162 0
M  V30 2345 H 228.454 -3.98342 -2.95868 0
M  V30 2346 N 227.627 0.131896 -1.57047 0
M  V30 2347 C 228.874 0.841932 -1.84168 0
M  V30 2348 C 229.202 1.8048 -0.725066 0
M  V30 2349 O 228.457 1.93618 0.284692 0
M  V30 2350 C 228.756 1.63703 -3.17704 0
M  V30 2351 C 228.422 0.81961 -4.43388 0
M  V30 2352 C 227.084 0.594148 -4.77518 0
M  V30 2353 C 229.436 0.248977 -5.20605 0
M  V30 2354 C 226.764 -0.212409 -5.86315 0
M  V30 2355 C 229.116 -0.544701 -6.30251 0
M  V30 2356 C 227.78 -0.780599 -6.6292 0
M  V30 2357 H 227.05 0.308085 -0.673917 0
M  V30 2358 H 229.697 0.104867 -1.91213 0
M  V30 2359 H 228.002 2.44464 -3.06177 0
M  V30 2360 H 229.699 2.19015 -3.35907 0
M  V30 2361 H 226.289 1.00542 -4.16641 0
M  V30 2362 H 230.473 0.410408 -4.946 0
M  V30 2363 H 225.729 -0.404524 -6.1006 0
M  V30 2364 H 229.903 -0.993922 -6.89271 0
M  V30 2365 H 227.53 -1.40742 -7.47058 0
M  V30 2366 N 229.106 1.52395 0.401703 0
M  V30 2367 C 230.038 1.72505 1.50912 0
M  V30 2368 C 231.051 0.605468 1.51122 0
M  V30 2369 O 232.24 0.880828 1.55254 0
M  V30 2370 C 229.34 1.75711 2.89791 0
M  V30 2371 C 228.513 3.04824 3.1369 0
M  V30 2372 C 227.572 2.99743 4.32482 0
M  V30 2373 O 226.598 3.73635 4.29402 0
M  V30 2374 N 227.8 2.18047 5.37992 0
M  V30 2375 H 230.565 2.68049 1.34052 0
M  V30 2376 H 228.126 1.50724 0.591084 0
M  V30 2377 H 230.118 1.69834 3.6734 0
M  V30 2378 H 228.688 0.876092 3.00072 0
M  V30 2379 H 227.908 3.2429 2.24119 0
M  V30 2380 H 229.196 3.90221 3.26504 0
M  V30 2381 H 228.594 1.57456 5.43345 0
M  V30 2382 H 227.151 2.18021 6.14256 0
M  V30 2383 N 230.584 -0.659388 1.43143 0
M  V30 2384 C 231.831 -1.41935 1.44433 0
M  V30 2385 C 232.159 -1.94387 0.0663522 0
M  V30 2386 O 231.414 -1.72314 -0.927706 0
M  V30 2387 C 231.713 -2.62206 2.42864 0
M  V30 2388 C 231.379 -2.28208 3.88886 0
M  V30 2389 C 230.041 -2.18647 4.28657 0
M  V30 2390 C 232.393 -2.00887 4.8093 0
M  V30 2391 C 229.721 -1.79914 5.58433 0
M  V30 2392 C 232.073 -1.63653 6.11065 0
M  V30 2393 C 230.737 -1.52614 6.49819 0
M  V30 2394 H 230.007 -0.519376 0.528517 0
M  V30 2395 H 232.654 -0.750453 1.76183 0
M  V30 2396 H 230.959 -3.34199 2.04495 0
M  V30 2397 H 232.656 -3.2041 2.41119 0
M  V30 2398 H 229.246 -2.36557 3.57406 0
M  V30 2399 H 233.43 -2.07198 4.5098 0
M  V30 2400 H 228.686 -1.69948 5.87305 0
M  V30 2401 H 232.86 -1.41543 6.81864 0
M  V30 2402 H 230.487 -1.22371 7.50286 0
M  V30 2403 N 232.062 -1.29571 -0.897171 0
M  V30 2404 C 233.311 -1.1706 -1.64256 0
M  V30 2405 C 233.624 0.276476 -1.93636 0
M  V30 2406 O 234.83 0.52294 -2.66416 0
M  V30 2407 C 233.286 -2.0475 -2.95982 0
M  V30 2408 C 232.894 -3.54295 -2.74187 0
M  V30 2409 C 234.638 -2.0097 -3.73914 0
M  V30 2410 C 232.545 -4.34081 -4.01656 0
M  V30 2411 H 231.475 -0.43452 -0.616205 0
M  V30 2412 H 234.126 -1.54229 -0.994268 0
M  V30 2413 H 232.508 -1.60452 -3.62038 0
M  V30 2414 H 233.682 -4.06662 -2.1671 0
M  V30 2415 H 231.997 -3.59773 -2.09648 0
M  V30 2416 H 234.594 -2.57838 -4.68427 0
M  V30 2417 H 234.937 -0.990273 -4.0435 0
M  V30 2418 H 235.47 -2.43325 -3.14703 0
M  V30 2419 H 232.209 -5.36671 -3.76384 0
M  V30 2420 H 231.729 -3.86483 -4.58684 0
M  V30 2421 H 233.408 -4.44877 -4.69781 0
M  V30 2422 N 233.54 1.10788 -1.12088 0
M  V30 2423 C 234.47 2.19083 -0.807755 0
M  V30 2424 C 235.451 1.6858 0.226859 0
M  V30 2425 O 236.636 1.93997 0.0888475 0
M  V30 2426 C 233.766 3.46344 -0.257576 0
M  V30 2427 C 232.72 4.101 -1.22483 0
M  V30 2428 C 232.046 5.32016 -0.535052 0
M  V30 2429 C 233.346 4.54236 -2.57811 0
M  V30 2430 H 235.04 2.45534 -1.71328 0
M  V30 2431 H 232.586 1.1801 -0.825205 0
M  V30 2432 H 234.539 4.21392 -0.0262679 0
M  V30 2433 H 233.263 3.19373 0.683278 0
M  V30 2434 H 231.922 3.37054 -1.44189 0
M  V30 2435 H 231.57 5.01319 0.410827 0
M  V30 2436 H 231.27 5.75625 -1.18024 0
M  V30 2437 H 232.794 6.09799 -0.312695 0
M  V30 2438 H 234.208 5.20575 -2.40155 0
M  V30 2439 H 232.605 5.08682 -3.18375 0
M  V30 2440 H 233.675 3.6734 -3.16528 0
M  V30 2441 N 235.018 0.912232 1.28515 0
M  V30 2442 C 236.429 0.591352 1.77087 0
M  V30 2443 C 236.78 -0.8933 1.74684 0
M  V30 2444 O 235.905 -1.69876 1.34056 0
M  V30 2445 C 236.5 1.06668 3.2157 0
M  V30 2446 C 235.059 0.79675 3.67871 0
M  V30 2447 C 234.206 1.23427 2.48316 0
M  V30 2448 H 237.157 1.09365 1.15 0
M  V30 2449 H 237.178 0.407455 3.78312 0
M  V30 2450 H 236.69 2.14726 3.23287 0
M  V30 2451 H 234.791 -0.270679 3.71616 0
M  V30 2452 H 234.904 1.40343 4.58084 0
M  V30 2453 H 233.268 0.653036 2.46186 0
M  V30 2454 H 234.051 2.32316 2.52753 0
M  V30 2455 N 236.496 -1.42363 0.676048 0
M  V30 2456 C 237.459 -2.29199 0.00766941 0
M  V30 2457 C 238.459 -1.43389 -0.727745 0
M  V30 2458 O 239.649 -1.64764 -0.56556 0
M  V30 2459 C 236.781 -3.2591 -0.999785 0
M  V30 2460 H 237.974 -2.89794 0.771988 0
M  V30 2461 H 235.527 -1.50024 0.438468 0
M  V30 2462 H 236.262 -2.70256 -1.79255 0
M  V30 2463 H 236.047 -3.89202 -0.475829 0
M  V30 2464 H 237.537 -3.91028 -1.46583 0
M  V30 2465 N 237.974 -0.419461 -1.51915 0
M  V30 2466 C 238.904 0.391813 -2.30189 0
M  V30 2467 C 239.885 1.03699 -1.34836 0
M  V30 2468 O 241.07 1.04403 -1.63748 0
M  V30 2469 C 238.2 1.50312 -3.13087 0
M  V30 2470 C 237.154 0.9824 -4.16573 0
M  V30 2471 C 236.48 2.18809 -4.8788 0
M  V30 2472 C 237.78 0.0292356 -5.22292 0
M  V30 2473 H 239.474 -0.26135 -2.98257 0
M  V30 2474 H 237.02 -0.127134 -1.43438 0
M  V30 2475 H 238.973 2.07773 -3.66617 0
M  V30 2476 H 237.697 2.18431 -2.42807 0
M  V30 2477 H 236.356 0.430119 -3.64068 0
M  V30 2478 H 236.004 2.85507 -4.14119 0
M  V30 2479 H 235.704 1.84615 -5.57845 0
M  V30 2480 H 237.228 2.76858 -5.44226 0
M  V30 2481 H 238.642 0.512976 -5.71 0
M  V30 2482 H 237.039 -0.2244 -5.9968 0
M  V30 2483 H 238.109 -0.912931 -4.76228 0
M  V30 2484 N 239.452 1.56882 -0.150215 0
M  V30 2485 C 240.863 1.82995 0.370076 0
M  V30 2486 C 241.214 1.06907 1.64515 0
M  V30 2487 O 240.339 0.315369 2.1409 0
M  V30 2488 C 240.934 3.31942 0.678208 0
M  V30 2489 C 239.493 3.58625 1.14301 0
M  V30 2490 C 238.64 2.76792 0.167778 0
M  V30 2491 H 241.591 1.54209 -0.374858 0
M  V30 2492 H 241.612 3.48272 1.53254 0
M  V30 2493 H 241.124 3.87294 -0.249991 0
M  V30 2494 H 239.225 3.08664 2.08704 0
M  V30 2495 H 239.338 4.67073 1.06676 0
M  V30 2496 H 237.702 2.45972 0.661037 0
M  V30 2497 H 238.485 3.34916 -0.754069 0
M  V30 2498 N 240.93 -0.123565 1.57115 0
M  V30 2499 C 241.88 -1.1575 1.96433 0
M  V30 2500 C 242.864 -1.37313 0.838686 0
M  V30 2501 O 244.056 -1.38482 1.10235 0
M  V30 2502 C 241.185 -2.48526 2.36833 0
M  V30 2503 C 240.271 -2.30457 3.5602 0
M  V30 2504 N 240.662 -1.8219 4.71848 0
M  V30 2505 C 238.96 -2.61129 3.61563 0
M  V30 2506 C 239.661 -1.77721 5.53886 0
M  V30 2507 N 238.637 -2.21899 4.96248 0
M  V30 2508 H 242.439 -0.776797 2.83449 0
M  V30 2509 H 239.953 -0.331364 1.58983 0
M  V30 2510 H 241.95 -3.233 2.63216 0
M  V30 2511 H 240.61 -2.87358 1.5118 0
M  V30 2512 H 241.621 -1.51805 4.95152 0
M  V30 2513 H 238.298 -3.03678 2.86507 0
M  V30 2514 H 239.688 -1.41697 6.56789 0
M  V30 2515 N 242.408 -1.52605 -0.393616 0
M  V30 2516 C 243.371 -1.76415 -1.46323 0
M  V30 2517 C 244.371 -0.634126 -1.47768 0
M  V30 2518 O 245.561 -0.902142 -1.4902 0
M  V30 2519 C 242.693 -1.8607 -2.85641 0
M  V30 2520 H 243.886 -2.71916 -1.26498 0
M  V30 2521 H 241.439 -1.43257 -0.625073 0
M  V30 2522 H 242.174 -0.925378 -3.10817 0
M  V30 2523 H 241.959 -2.68235 -2.85993 0
M  V30 2524 H 243.449 -2.06179 -3.63153 0
M  V30 2525 N 243.887 0.651787 -1.4349 0
M  V30 2526 C 245.136 1.40754 -1.44469 0
M  V30 2527 C 245.449 1.95463 -0.0731845 0
M  V30 2528 O 246.655 2.71471 0.0395721 0
M  V30 2529 C 245.111 2.54735 -2.5424 0
M  V30 2530 C 244.719 2.06628 -3.97504 0
M  V30 2531 C 246.463 3.32092 -2.64414 0
M  V30 2532 C 244.37 3.17829 -4.98737 0
M  V30 2533 H 243.3 0.528862 -0.53742 0
M  V30 2534 H 245.951 0.703365 -1.69485 0
M  V30 2535 H 244.333 3.2763 -2.22428 0
M  V30 2536 H 245.507 1.40734 -4.38783 0
M  V30 2537 H 243.822 1.42146 -3.91387 0
M  V30 2538 H 246.419 4.14952 -3.37223 0
M  V30 2539 H 246.762 3.80217 -1.69532 0
M  V30 2540 H 247.295 2.66279 -2.95534 0
M  V30 2541 H 244.034 2.74671 -5.95177 0
M  V30 2542 H 243.554 3.82429 -4.62069 0
M  V30 2543 H 245.233 3.82937 -5.21505 0
M  V30 2544 N 245.365 1.30045 0.890287 0
M  V30 2545 C 246.642 1.09227 1.62262 0
M  V30 2546 C 247.022 -0.360305 2.08002 0
M  V30 2547 O 246.37 -1.35084 1.84295 0
M  V30 2548 C 246.58 2.08835 2.79623 0
M  V30 2549 C 247.928 2.40266 3.50082 0
M  V30 2550 O 248.952 2.07104 2.89804 0
M  V30 2551 O 247.811 2.96967 4.58773 0
M  V30 2552 H 244.905 0.419132 0.712922 0
M  V30 2553 H 247.451 1.41451 0.937529 0
M  V30 2554 H 246.223 3.06633 2.43089 0
M  V30 2555 H 245.846 1.77397 3.55832 0
M  V30 2556 N 246.843 -1.10192 1.12674 0
M  V30 2557 C 247.773 -2.18652 0.819362 0
M  V30 2558 C 248.754 -1.68698 -0.217915 0
M  V30 2559 O 249.939 -1.94041 -0.0785581 0
M  V30 2560 C 247.069 -3.46202 0.27594 0
M  V30 2561 C 246.023 -4.09444 1.24656 0
M  V30 2562 C 245.349 -5.31725 0.563258 0
M  V30 2563 C 246.649 -4.52863 2.60217 0
M  V30 2564 H 248.343 -2.44622 1.72628 0
M  V30 2565 H 245.889 -1.17571 0.831451 0
M  V30 2566 H 247.842 -4.21372 0.0486149 0
M  V30 2567 H 246.566 -3.1973 -0.666331 0
M  V30 2568 H 245.225 -3.36284 1.45974 0
M  V30 2569 H 244.873 -5.0153 -0.384235 0
M  V30 2570 H 244.573 -5.74991 1.21075 0
M  V30 2571 H 246.097 -6.09624 0.34503 0
M  V30 2572 H 247.511 -5.19294 2.42913 0
M  V30 2573 H 245.908 -5.06986 3.21068 0
M  V30 2574 H 246.978 -3.65656 3.18471 0
M  V30 2575 N 248.321 -0.919034 -1.28029 0
M  V30 2576 C 249.251 -0.428581 -2.29533 0
M  V30 2577 C 250.232 0.50659 -1.62381 0
M  V30 2578 O 251.417 0.413195 -1.89753 0
M  V30 2579 C 248.547 0.327388 -3.45753 0
M  V30 2580 C 247.501 -0.519137 -4.2484 0
M  V30 2581 C 246.827 0.365486 -5.33449 0
M  V30 2582 C 248.127 -1.77914 -4.91064 0
M  V30 2583 H 249.821 -1.27687 -2.70807 0
M  V30 2584 H 247.367 -0.615428 -1.30186 0
M  V30 2585 H 249.32 0.681378 -4.15855 0
M  V30 2586 H 248.044 1.20963 -3.03374 0
M  V30 2587 H 246.703 -0.855717 -3.56473 0
M  V30 2588 H 246.351 1.24642 -4.87312 0
M  V30 2589 H 246.051 -0.197356 -5.87268 0
M  V30 2590 H 247.575 0.715241 -6.06396 0
M  V30 2591 H 248.989 -1.49374 -5.53498 0
M  V30 2592 H 247.386 -2.2848 -5.54903 0
M  V30 2593 H 248.456 -2.50382 -4.15255 0
M  V30 2594 N 249.799 1.42003 -0.683588 0
M  V30 2595 C 251.215 1.55625 -0.353976 0
M  V30 2596 C 251.415 1.66151 1.14 0
M  V30 2597 O 250.471 1.63329 1.92561 0
M  V30 2598 C 251.784 2.80171 -1.092 0
M  V30 2599 C 253.332 2.93954 -1.07518 0
M  V30 2600 C 253.807 4.21372 -1.79471 0
M  V30 2601 N 255.298 4.28303 -1.76381 0
M  V30 2602 C 256.033 5.25729 -2.28904 0
M  V30 2603 N 255.529 6.29254 -2.89846 0
M  V30 2604 N 257.322 5.17586 -2.19228 0
M  V30 2605 H 249.473 1.33415 -1.6527 0
M  V30 2606 H 251.736 0.64282 -0.696769 0
M  V30 2607 H 251.442 2.78561 -2.14701 0
M  V30 2608 H 251.316 3.7133 -0.662862 0
M  V30 2609 H 253.703 2.95086 -0.028475 0
M  V30 2610 H 253.784 2.04002 -1.54328 0
M  V30 2611 H 253.428 4.21001 -2.84114 0
M  V30 2612 H 253.358 5.10275 -1.30104 0
M  V30 2613 H 255.849 3.54119 -1.31939 0
M  V30 2614 H 256.162 6.99964 -3.27522 0
M  V30 2615 H 254.507 6.29791 -2.93919 0
M  V30 2616 H 257.698 4.35631 -1.71299 0
M  V30 2617 H 257.871 5.93348 -2.60466 0
M  V30 2618 N 251.277 0.427512 1.51691 0
M  V30 2619 C 252.554 -0.201684 1.94557 0
M  V30 2620 C 252.934 -1.60981 1.36559 0
M  V30 2621 O 252.282 -2.21814 0.548702 0
M  V30 2622 C 252.492 -0.189394 3.48486 0
M  V30 2623 C 253.84 -0.39978 4.22714 0
M  V30 2624 O 254.864 -0.267945 3.55191 0
M  V30 2625 O 253.723 -0.661249 5.42485 0
M  V30 2626 H 250.817 -0.135261 0.815864 0
M  V30 2627 H 253.363 0.484782 1.62628 0
M  V30 2628 H 252.135 0.795431 3.8313 0
M  V30 2629 H 251.758 -0.919187 3.86829 0
M  V30 2630 N 252.755 -1.56801 0.158532 0
M  V30 2631 C 253.718 -2.16138 -0.762705 0
M  V30 2632 C 254.718 -1.1061 -1.16713 0
M  V30 2633 O 255.908 -1.36191 -1.08617 0
M  V30 2634 C 253.04 -2.73386 -2.03649 0
M  V30 2635 H 254.233 -2.98886 -0.246354 0
M  V30 2636 H 251.786 -1.56035 -0.0909744 0
M  V30 2637 H 252.521 -1.94335 -2.59623 0
M  V30 2638 H 252.306 -3.50601 -1.75559 0
M  V30 2639 H 253.796 -3.19065 -2.6942 0
M  V30 2640 N 254.233 0.115231 -1.57178 0
M  V30 2641 C 255.482 0.820945 -1.84237 0
M  V30 2642 C 255.795 1.80866 -0.744761 0
M  V30 2643 O 257.001 2.56083 -0.901871 0
M  V30 2644 C 255.457 1.51072 -3.26658 0
M  V30 2645 C 255.065 0.563795 -4.44438 0
M  V30 2646 C 256.809 2.20134 -3.62962 0
M  V30 2647 C 254.716 1.25701 -5.77887 0
M  V30 2648 H 253.646 0.310328 -0.687177 0
M  V30 2649 H 256.297 0.0737134 -1.83352 0
M  V30 2650 H 254.679 2.30471 -3.22024 0
M  V30 2651 H 255.853 -0.197247 -4.60378 0
M  V30 2652 H 254.168 -0.0200638 -4.16395 0
M  V30 2653 H 256.765 2.72696 -4.59936 0
M  V30 2654 H 257.108 2.98107 -2.90582 0
M  V30 2655 H 257.641 1.47619 -3.69396 0
M  V30 2656 H 254.38 0.518493 -6.53446 0
M  V30 2657 H 253.9 1.98997 -5.65827 0
M  V30 2658 H 255.579 1.78915 -6.2177 0
M  V30 2659 N 255.711 1.52812 0.385517 0
M  V30 2660 C 256.957 1.68275 1.13188 0
M  V30 2661 C 257.29 0.423179 1.89533 0
M  V30 2662 O 256.565 -0.579113 1.85679 0
M  V30 2663 C 256.848 2.92001 2.1073 0
M  V30 2664 C 256.701 4.28067 1.38125 0
M  V30 2665 C 258.02 3.11283 3.11113 0
M  V30 2666 H 255.139 0.612352 0.410115 0
M  V30 2667 H 257.781 1.85415 0.414869 0
M  V30 2668 H 255.931 2.77519 2.71874 0
M  V30 2669 H 257.603 4.54324 0.799187 0
M  V30 2670 H 255.846 4.28388 0.683092 0
M  V30 2671 H 256.517 5.10733 2.09417 0
M  V30 2672 H 258.993 3.2482 2.6006 0
M  V30 2673 H 257.869 3.99325 3.76605 0
M  V30 2674 H 258.13 2.25656 3.80173 0
M  V30 2675 N 257.189 -0.644168 1.43834 0
M  V30 2676 C 258.136 -1.75671 1.49694 0
M  V30 2677 C 259.106 -1.6246 0.345809 0
M  V30 2678 O 260.291 -1.82573 0.554234 0
M  V30 2679 C 257.431 -3.13867 1.43463 0
M  V30 2680 C 256.544 -3.38147 2.6885 0
M  V30 2681 C 255.679 -4.66241 2.54544 0
M  V30 2682 C 254.718 -4.83657 3.75157 0
M  V30 2683 N 253.855 -6.03016 3.59605 0
M  V30 2684 H 258.695 -1.69998 2.44754 0
M  V30 2685 H 256.232 -0.829458 1.21484 0
M  V30 2686 H 258.19 -3.9377 1.37843 0
M  V30 2687 H 256.82 -3.18588 0.519783 0
M  V30 2688 H 255.872 -2.52276 2.84712 0
M  V30 2689 H 257.184 -3.46899 3.58417 0
M  V30 2690 H 256.338 -5.54285 2.46683 0
M  V30 2691 H 255.077 -4.59826 1.62516 0
M  V30 2692 H 254.082 -3.94046 3.83416 0
M  V30 2693 H 255.307 -4.91896 4.68204 0
M  V30 2694 H 253.253 -5.97715 2.7032 0
M  V30 2695 H 253.17 -6.12766 4.42779 0
M  V30 2696 H 254.438 -6.93657 3.55613 0
M  V30 2697 N 258.668 -1.30515 -0.883378 0
M  V30 2698 C 259.914 -1.19607 -1.63774 0
M  V30 2699 C 260.247 0.248314 -1.92606 0
M  V30 2700 O 259.522 1.17742 -1.54813 0
M  V30 2701 C 259.805 -2.02669 -2.97653 0
M  V30 2702 C 259.658 -3.55335 -2.75784 0
M  V30 2703 C 260.977 -1.86573 -3.98596 0
M  V30 2704 H 258.096 -0.435856 -0.594305 0
M  V30 2705 H 260.738 -1.60165 -1.02212 0
M  V30 2706 H 258.888 -1.68208 -3.50197 0
M  V30 2707 H 260.56 -3.99863 -2.30016 0
M  V30 2708 H 258.803 -3.79438 -2.1026 0
M  V30 2709 H 259.474 -4.08745 -3.70988 0
M  V30 2710 H 261.95 -2.16703 -3.55217 0
M  V30 2711 H 260.826 -2.47014 -4.90179 0
M  V30 2712 H 261.087 -0.825321 -4.34328 0
M  V30 2713 N 260.146 1.09593 -1.13257 0
M  V30 2714 C 261.093 2.1618 -0.808381 0
M  V30 2715 C 262.063 1.64517 0.228754 0
M  V30 2716 O 263.248 1.9053 0.101381 0
M  V30 2717 C 260.388 3.43973 -0.278675 0
M  V30 2718 C 259.501 4.09545 -1.37466 0
M  V30 2719 C 258.636 5.25088 -0.803479 0
M  V30 2720 C 257.675 5.82579 -1.87799 0
M  V30 2721 N 256.812 6.89486 -1.32488 0
M  V30 2722 H 261.652 2.43254 -1.72138 0
M  V30 2723 H 259.189 1.19392 -0.859294 0
M  V30 2724 H 261.147 4.17174 0.0465583 0
M  V30 2725 H 259.777 3.17223 0.597459 0
M  V30 2726 H 258.829 3.34226 -1.81652 0
M  V30 2727 H 260.141 4.48307 -2.18684 0
M  V30 2728 H 259.295 6.05178 -0.429427 0
M  V30 2729 H 258.034 4.87684 0.0397956 0
M  V30 2730 H 257.039 5.01152 -2.26113 0
M  V30 2731 H 258.264 6.22045 -2.72463 0
M  V30 2732 H 256.21 6.54064 -0.503575 0
M  V30 2733 H 256.127 7.27007 -2.07355 0
M  V30 2734 H 257.395 7.73336 -0.978336 0
M  V30 2735 N 261.624 0.925811 1.2754 0
M  V30 2736 C 262.534 0.428993 2.30644 0
M  V30 2737 C 263.55 -0.489387 1.66976 0
M  V30 2738 O 264.726 -0.372653 1.97922 0
M  V30 2739 C 261.791 -0.311967 3.45294 0
M  V30 2740 C 260.852 0.641098 4.24486 0
M  V30 2741 C 260.085 -0.0645955 5.33661 0
M  V30 2742 O 260.308 -1.28429 5.55754 0
M  V30 2743 O 259.242 0.606265 5.98839 0
M  V30 2744 H 263.068 1.28504 2.75173 0
M  V30 2745 H 260.653 0.691086 1.32455 0
M  V30 2746 H 262.535 -0.729972 4.15029 0
M  V30 2747 H 261.21 -1.14365 3.02824 0
M  V30 2748 H 260.117 1.10874 3.57292 0
M  V30 2749 H 261.45 1.43995 4.70666 0
M  V30 2750 N 263.102 -1.41638 0.69111 0
M  V30 2751 C 264.348 -2.01598 0.220519 0
M  V30 2752 C 264.681 -1.54594 -1.17535 0
M  V30 2753 O 263.956 -0.755177 -1.79241 0
M  V30 2754 C 264.239 -3.59062 0.273243 0
M  V30 2755 C 264.092 -4.16203 1.70573 0
M  V30 2756 C 265.411 -4.38546 -0.369457 0
M  V30 2757 H 262.53 -0.732468 0.0816045 0
M  V30 2758 H 265.172 -1.68445 0.878986 0
M  V30 2759 H 263.322 -3.87435 -0.287411 0
M  V30 2760 H 264.994 -3.98722 2.31989 0
M  V30 2761 H 263.237 -3.71414 2.2413 0
M  V30 2762 H 263.908 -5.25358 1.69419 0
M  V30 2763 H 266.384 -4.1596 0.107977 0
M  V30 2764 H 265.26 -5.48069 -0.302002 0
M  V30 2765 H 265.521 -4.17662 -1.44951 0
M  V30 2766 N 264.58 -0.43555 -1.51462 0
M  V30 2767 C 265.53 0.394701 -2.24558 0
M  V30 2768 C 266.514 0.99157 -1.26715 0
M  V30 2769 O 267.706 0.910007 -1.51815 0
M  V30 2770 C 264.835 1.4963 -3.08975 0
M  V30 2771 C 263.921 0.908912 -4.14246 0
M  V30 2772 N 264.312 0.0505335 -5.05775 0
M  V30 2773 C 262.61 1.17668 -4.30198 0
M  V30 2774 C 263.311 -0.279161 -5.8103 0
M  V30 2775 N 262.287 0.336767 -5.42556 0
M  V30 2776 H 266.089 -0.267106 -2.92684 0
M  V30 2777 H 263.603 -0.247518 -1.60503 0
M  V30 2778 H 265.6 2.10394 -3.59917 0
M  V30 2779 H 264.26 2.16046 -2.42393 0
M  V30 2780 H 265.271 -0.31577 -5.16936 0
M  V30 2781 H 261.948 1.83847 -3.74842 0
M  V30 2782 H 263.338 -0.977553 -6.64751 0
M  V30 2783 N 266.058 1.56714 -0.166846 0
M  V30 2784 C 267.335 1.88412 0.525373 0
M  V30 2785 C 267.715 1.07602 1.81618 0
M  V30 2786 O 267.063 0.168621 2.27877 0
M  V30 2787 C 267.273 3.40363 0.771613 0
M  V30 2788 C 268.621 4.10007 1.1036 0
M  V30 2789 O 269.645 3.45655 0.860304 0
M  V30 2790 O 268.504 5.2369 1.56239 0
M  V30 2791 H 265.598 0.781587 0.270278 0
M  V30 2792 H 268.144 1.68458 -0.204946 0
M  V30 2793 H 266.916 3.91046 -0.141093 0
M  V30 2794 H 266.539 3.65914 1.55541 0
M  V30 2795 N 267.536 -0.106894 1.57237 0
M  V30 2796 C 268.446 -1.14911 2.0453 0
M  V30 2797 C 269.462 -1.44592 0.96795 0
M  V30 2798 O 270.638 -1.55468 1.2803 0
M  V30 2799 C 267.703 -2.45272 2.45036 0
M  V30 2800 C 266.764 -2.22879 3.66911 0
M  V30 2801 C 265.997 -3.47024 4.05475 0
M  V30 2802 O 266.22 -4.54804 3.44252 0
M  V30 2803 O 265.154 -3.3731 4.98504 0
M  V30 2804 H 268.98 -0.777461 2.9358 0
M  V30 2805 H 266.565 -0.318563 1.45964 0
M  V30 2806 H 268.447 -3.22055 2.71769 0
M  V30 2807 H 267.122 -2.81886 1.59129 0
M  V30 2808 H 266.029 -1.43915 3.45311 0
M  V30 2809 H 267.362 -1.91163 4.53561 0
M  V30 2810 N 269.014 -1.53014 -0.377408 0
M  V30 2811 C 269.944 -1.81589 -1.46791 0
M  V30 2812 C 270.925 -0.668622 -1.56408 0
M  V30 2813 O 272.11 -0.917337 -1.71168 0
M  V30 2814 C 269.24 -1.99519 -2.8427 0
M  V30 2815 C 268.194 -3.15249 -2.89486 0
M  V30 2816 C 267.52 -3.18451 -4.29527 0
M  V30 2817 C 268.82 -4.54084 -2.58079 0
M  V30 2818 H 270.514 -2.7291 -1.23127 0
M  V30 2819 H 268.06 -1.31319 -0.590883 0
M  V30 2820 H 270.013 -2.18092 -3.60575 0
M  V30 2821 H 268.737 -1.04897 -3.09296 0
M  V30 2822 H 267.396 -2.96477 -2.15631 0
M  V30 2823 H 267.044 -2.2149 -4.5161 0
M  V30 2824 H 266.744 -3.962 -4.33934 0
M  V30 2825 H 268.268 -3.39193 -5.07721 0
M  V30 2826 H 269.682 -4.72899 -3.24098 0
M  V30 2827 H 268.079 -5.33987 -2.7382 0
M  V30 2828 H 269.149 -4.60006 -1.53372 0
M  V30 2829 N 270.492 0.636531 -1.44174 0
M  V30 2830 C 271.402 1.77754 -1.53103 0
M  V30 2831 C 272.418 1.68928 -0.417034 0
M  V30 2832 O 273.594 1.89801 -0.6736 0
M  V30 2833 C 270.659 3.14115 -1.46741 0
M  V30 2834 C 269.72 3.34612 -2.68948 0
M  V30 2835 C 268.953 4.64467 -2.6288 0
M  V30 2836 O 269.176 5.44919 -1.68581 0
M  V30 2837 O 268.11 4.87049 -3.53648 0
M  V30 2838 H 271.936 1.73174 -2.49489 0
M  V30 2839 H 269.521 0.79709 -1.2636 0
M  V30 2840 H 271.403 3.95412 -1.45696 0
M  V30 2841 H 270.078 3.19249 -0.534975 0
M  V30 2842 H 268.985 2.53014 -2.75562 0
M  V30 2843 H 270.318 3.34336 -3.61221 0
M  V30 2844 N 271.97 1.30982 0.876444 0
M  V30 2845 C 273.247 1.10942 1.61094 0
M  V30 2846 C 273.627 -0.338223 2.08373 0
M  V30 2847 O 272.975 -1.33122 1.85717 0
M  V30 2848 C 273.185 2.11789 2.77392 0
M  V30 2849 C 274.533 2.43965 3.47514 0
M  V30 2850 O 275.557 2.10166 2.87591 0
M  V30 2851 O 274.416 3.01817 4.55597 0
M  V30 2852 H 271.51 0.42667 0.708436 0
M  V30 2853 H 274.056 1.42438 0.922474 0
M  V30 2854 H 272.828 3.09194 2.39823 0
M  V30 2855 H 272.451 1.81161 3.5393 0
M  V30 2856 N 273.449 -1.08991 1.13837 0
M  V30 2857 C 274.379 -2.17771 0.842507 0
M  V30 2858 C 275.36 -1.6892 -0.20001 0
M  V30 2859 O 276.545 -1.94113 -0.0579731 0
M  V30 2860 C 273.675 -3.4589 0.312644 0
M  V30 2861 C 272.629 -4.08099 1.28992 0
M  V30 2862 C 271.955 -5.31098 0.619623 0
M  V30 2863 C 273.255 -4.50077 2.65005 0
M  V30 2864 H 274.949 -2.42777 1.75213 0
M  V30 2865 H 272.495 -1.16682 0.843875 0
M  V30 2866 H 274.448 -4.21297 0.0933043 0
M  V30 2867 H 273.172 -3.20419 -0.632382 0
M  V30 2868 H 271.831 -3.34717 1.49533 0
M  V30 2869 H 271.479 -5.0191 -0.33102 0
M  V30 2870 H 271.179 -5.73674 1.27167 0
M  V30 2871 H 272.703 -6.09224 0.409669 0
M  V30 2872 H 274.117 -5.16688 2.48407 0
M  V30 2873 H 272.514 -5.03553 3.26427 0
M  V30 2874 H 273.584 -3.62257 3.22332 0
M  V30 2875 N 274.927 -0.932562 -1.27047 0
M  V30 2876 C 276.338 -0.619451 -1.76124 0
M  V30 2877 C 276.689 0.865397 -1.76083 0
M  V30 2878 O 275.814 1.67722 -1.36742 0
M  V30 2879 C 276.409 -1.11771 -3.19832 0
M  V30 2880 C 274.968 -0.855174 -3.66557 0
M  V30 2881 C 274.115 -1.27362 -2.46321 0
M  V30 2882 H 277.066 -1.11181 -1.13245 0
M  V30 2883 H 277.087 -0.46759 -3.77616 0
M  V30 2884 H 276.599 -2.19842 -3.1983 0
M  V30 2885 H 274.7 0.211524 -3.71999 0
M  V30 2886 H 274.813 -1.47613 -4.55793 0
M  V30 2887 H 273.177 -0.692119 -2.45116 0
M  V30 2888 H 273.96 -2.36307 -2.49025 0
M  V30 2889 N 276.405 1.4127 -0.698611 0
M  V30 2890 C 277.63 2.06024 -0.238512 0
M  V30 2891 C 278.055 1.5224 1.10475 0
M  V30 2892 O 277.413 0.650623 1.69223 0
M  V30 2893 C 277.461 3.59988 -0.209952 0
M  V30 2894 O 276.565 4.04282 0.814235 0
M  V30 2895 H 275.906 0.653829 -0.115775 0
M  V30 2896 H 278.436 1.8098 -0.954326 0
M  V30 2897 H 278.446 4.07979 -0.0418436 0
M  V30 2898 H 277.121 3.98503 -1.1903 0
M  V30 2899 H 275.698 3.6779 0.615234 0
M  V30 2900 N 277.883 0.443576 1.51229 0
M  V30 2901 C 279.294 -0.0180867 1.86691 0
M  V30 2902 C 279.645 -1.41384 1.36033 0
M  V30 2903 O 278.77 -2.04291 0.713722 0
M  V30 2904 C 279.365 -0.039597 3.38777 0
M  V30 2905 C 277.924 -0.445692 3.73752 0
M  V30 2906 C 277.071 0.357584 2.74985 0
M  V30 2907 H 280.022 0.659138 1.44364 0
M  V30 2908 H 280.043 -0.847761 3.70936 0
M  V30 2909 H 279.555 0.976382 3.75617 0
M  V30 2910 H 277.656 -1.46704 3.42503 0
M  V30 2911 H 277.769 -0.166155 4.78812 0
M  V30 2912 H 276.133 -0.184973 2.54027 0
M  V30 2913 H 276.916 1.37256 3.14668 0
M  V30 2914 N 279.361 -1.56624 0.175154 0
M  V30 2915 C 280.772 -1.83561 -0.340916 0
M  V30 2916 C 281.123 -1.09511 -1.62794 0
M  V30 2917 O 280.248 -0.349389 -2.13561 0
M  V30 2918 C 280.843 -3.32979 -0.625313 0
M  V30 2919 C 279.402 -3.60399 -1.08581 0
M  V30 2920 C 278.549 -2.77024 -0.123722 0
M  V30 2921 H 281.5 -1.53593 0.399344 0
M  V30 2922 H 281.521 -3.50666 -1.47694 0
M  V30 2923 H 281.033 -3.86847 0.311575 0
M  V30 2924 H 279.134 -3.11945 -2.03767 0
M  V30 2925 H 279.247 -4.68711 -0.992317 0
M  V30 2926 H 277.611 -2.46993 -0.621821 0
M  V30 2927 H 278.394 -3.33674 0.807256 0
M  V30 2928 N 280.839 0.0985539 -1.57292 0
M  V30 2929 C 282.25 0.653457 -1.74891 0
M  V30 2930 C 282.601 1.7929 -0.796838 0
M  V30 2931 O 281.726 2.16385 0.0254886 0
M  V30 2932 C 282.321 1.19216 -3.17133 0
M  V30 2933 C 280.88 1.69316 -3.36168 0
M  V30 2934 C 280.027 0.601294 -2.70702 0
M  V30 2935 H 282.978 -0.127497 -1.58187 0
M  V30 2936 H 282.999 2.06154 -3.19814 0
M  V30 2937 H 282.511 0.362635 -3.86402 0
M  V30 2938 H 280.612 2.5468 -2.71972 0
M  V30 2939 H 280.725 1.78853 -4.44464 0
M  V30 2940 H 279.089 1.0399 -2.32504 0
M  V30 2941 H 279.872 -0.217592 -3.4261 0
M  V30 2942 N 282.317 1.53212 0.369288 0
M  V30 2943 C 283.728 1.60943 0.946276 0
M  V30 2944 C 284.079 0.47452 1.90375 0
M  V30 2945 O 283.204 -0.399597 2.12679 0
M  V30 2946 C 283.799 2.91715 1.72302 0
M  V30 2947 C 282.358 3.01792 2.24941 0
M  V30 2948 C 281.505 2.56211 1.06072 0
M  V30 2949 H 284.456 1.58007 0.148198 0
M  V30 2950 H 284.477 2.79309 2.58393 0
M  V30 2951 H 283.989 3.74295 1.0259 0
M  V30 2952 H 282.09 2.23791 2.97906 0
M  V30 2953 H 282.203 4.06803 2.53077 0
M  V30 2954 H 280.567 2.10998 1.4266 0
M  V30 2955 H 281.35 3.41206 0.378639 0
M  V30 2956 N 283.795 -0.628877 1.44509 0
M  V30 2957 C 284.725 -1.75187 1.54376 0
M  V30 2958 C 285.706 -1.65411 0.396618 0
M  V30 2959 O 286.891 -1.84137 0.617031 0
M  V30 2960 C 284.021 -3.13725 1.48976 0
M  V30 2961 C 282.975 -3.38291 2.62189 0
M  V30 2962 C 282.301 -4.76883 2.41841 0
M  V30 2963 C 283.601 -3.30632 4.04326 0
M  V30 2964 H 285.295 -1.67187 2.48373 0
M  V30 2965 H 282.841 -0.802909 1.19538 0
M  V30 2966 H 284.794 -3.92064 1.54478 0
M  V30 2967 H 283.518 -3.22515 0.514961 0
M  V30 2968 H 282.177 -2.62334 2.56079 0
M  V30 2969 H 281.825 -4.82378 1.42548 0
M  V30 2970 H 281.525 -4.94278 3.17747 0
M  V30 2971 H 283.049 -5.57449 2.49165 0
M  V30 2972 H 284.463 -3.98873 4.11793 0
M  V30 2973 H 282.86 -3.59561 4.80454 0
M  V30 2974 H 283.93 -2.28404 4.27738 0
M  V30 2975 N 285.273 -1.31445 -0.869486 0
M  V30 2976 C 286.498 -1.24256 -1.66058 0
M  V30 2977 C 286.923 0.188928 -1.87149 0
M  V30 2978 O 286.281 1.13522 -1.4136 0
M  V30 2979 C 286.329 -1.9924 -3.00559 0
M  V30 2980 O 285.433 -1.33007 -3.90362 0
M  V30 2981 H 284.774 -0.428973 -0.506831 0
M  V30 2982 H 287.304 -1.73521 -1.08404 0
M  V30 2983 H 287.314 -2.08854 -3.50491 0
M  V30 2984 H 285.989 -3.03342 -2.84528 0
M  V30 2985 H 284.566 -1.31848 -3.48813 0
M  V30 2986 N 286.751 1.08385 -1.14413 0
M  V30 2987 C 288.162 1.62258 -0.923535 0
M  V30 2988 C 288.513 1.88691 0.537595 0
M  V30 2989 O 287.638 1.64454 1.40655 0
M  V30 2990 C 288.233 2.94781 -1.67002 0
M  V30 2991 C 286.792 3.45437 -1.495 0
M  V30 2992 C 285.939 2.19668 -1.69238 0
M  V30 2993 H 288.89 0.916086 -1.2959 0
M  V30 2994 H 288.911 3.63229 -1.13334 0
M  V30 2995 H 288.423 2.7551 -2.73342 0
M  V30 2996 H 286.524 3.6981 -0.455097 0
M  V30 2997 H 286.637 4.22173 -2.2651 0
M  V30 2998 H 285.001 2.28849 -1.11804 0
M  V30 2999 H 285.784 2.02905 -2.7692 0
M  V30 3000 N 288.23 0.939286 1.26551 0
M  V30 3001 C 289.641 0.628782 1.75793 0
M  V30 3002 C 289.992 -0.856046 1.7654 0
M  V30 3003 O 289.117 -1.66994 1.3763 0
M  V30 3004 C 289.712 1.13465 3.19235 0
M  V30 3005 C 288.271 0.874601 3.66098 0
M  V30 3006 C 287.418 1.28667 2.45642 0
M  V30 3007 H 290.369 1.1178 1.12654 0
M  V30 3008 H 290.39 0.487609 3.77363 0
M  V30 3009 H 289.902 2.21535 3.1866 0
M  V30 3010 H 288.003 -0.191793 3.72106 0
M  V30 3011 H 288.116 1.50028 4.55004 0
M  V30 3012 H 286.48 0.705109 2.44745 0
M  V30 3013 H 287.263 2.37625 2.47769 0
M  V30 3014 N 289.708 -1.40897 0.706093 0
M  V30 3015 C 291.119 -1.84023 0.315052 0
M  V30 3016 C 291.47 -1.5906 -1.14866 0
M  V30 3017 O 290.595 -1.06651 -1.88293 0
M  V30 3018 C 291.19 -3.34055 0.565038 0
M  V30 3019 C 289.749 -3.7571 0.227806 0
M  V30 3020 C 288.896 -2.64204 0.842122 0
M  V30 3021 H 291.847 -1.303 0.905963 0
M  V30 3022 H 291.868 -3.80107 -0.172843 0
M  V30 3023 H 291.38 -3.52192 1.63042 0
M  V30 3024 H 289.481 -3.63172 -0.832895 0
M  V30 3025 H 289.594 -4.74103 0.690174 0
M  V30 3026 H 287.958 -2.53255 0.270893 0
M  V30 3027 H 288.741 -2.85155 1.91158 0
M  V30 3028 N 291.186 -0.45159 -1.50991 0
M  V30 3029 C 292.414 0.108334 -2.06616 0
M  V30 3030 C 292.829 1.35224 -1.31757 0
M  V30 3031 O 292.186 1.78475 -0.381174 0
M  V30 3032 C 292.237 0.41619 -3.59096 0
M  V30 3033 O 291.958 -0.778361 -4.3113 0
M  V30 3034 C 293.459 1.02523 -4.31282 0
M  V30 3035 H 290.679 0.00159995 -0.670998 0
M  V30 3036 H 293.223 -0.634771 -1.94399 0
M  V30 3037 H 291.378 1.10921 -3.71181 0
M  V30 3038 H 291.792 -0.511181 -5.22003 0
M  V30 3039 H 293.266 1.19053 -5.39009 0
M  V30 3040 H 293.743 2.01013 -3.905 0
M  V30 3041 H 294.349 0.371173 -4.23677 0
M  V30 3042 N 292.664 1.56529 -0.183458 0
M  V30 3043 C 293.892 2.01623 0.464285 0
M  V30 3044 C 294.307 1.06366 1.55986 0
M  V30 3045 O 293.664 0.0665398 1.82379 0
M  V30 3046 C 293.715 3.46475 1.03139 0
M  V30 3047 O 293.436 4.38095 -0.0204675 0
M  V30 3048 C 294.937 4.0703 1.75617 0
M  V30 3049 H 292.157 0.660596 0.117704 0
M  V30 3050 H 294.701 2.02451 -0.288751 0
M  V30 3051 H 292.856 3.46383 1.73486 0
M  V30 3052 H 293.27 5.22973 0.399952 0
M  V30 3053 H 294.744 5.10271 2.10542 0
M  V30 3054 H 295.221 3.49819 2.65563 0
M  V30 3055 H 295.827 4.1086 1.09882 0
M  V30 3056 N 294.142 -0.090211 1.57342 0
M  V30 3057 C 295.367 -0.810082 1.90925 0
M  V30 3058 C 295.792 -1.71248 0.778187 0
M  V30 3059 O 295.15 -1.79278 -0.269991 0
M  V30 3060 C 295.198 -1.59529 3.23393 0
M  V30 3061 O 294.302 -2.70461 3.11327 0
M  V30 3062 H 293.643 -0.222231 0.625707 0
M  V30 3063 H 296.173 -0.0639716 2.045 0
M  V30 3064 H 296.183 -1.97847 3.5682 0
M  V30 3065 H 294.858 -0.933055 4.05299 0
M  V30 3066 H 293.435 -2.35135 2.89423 0
M  V30 3067 N 295.62 -1.53406 -0.361157 0
M  V30 3068 C 297.031 -1.61442 -0.937728 0
M  V30 3069 C 297.382 -0.48461 -1.90121 0
M  V30 3070 O 296.507 0.388312 -2.12888 0
M  V30 3071 C 297.102 -2.92624 -1.70753 0
M  V30 3072 C 295.661 -3.02981 -2.23337 0
M  V30 3073 C 294.808 -2.5677 -1.04712 0
M  V30 3074 H 297.759 -1.58083 -0.139816 0
M  V30 3075 H 297.78 -2.80675 -2.56908 0
M  V30 3076 H 297.292 -3.74834 -1.00604 0
M  V30 3077 H 295.393 -2.25368 -2.96715 0
M  V30 3078 H 295.506 -4.0814 -2.50916 0
M  V30 3079 H 293.87 -2.11752 -1.41539 0
M  V30 3080 H 294.653 -3.41402 -0.360539 0
M  V30 3081 N 297.098 0.621204 -1.44841 0
M  V30 3082 C 298.048 1.72663 -1.48901 0
M  V30 3083 C 299.032 1.56964 -0.353702 0
M  V30 3084 O 300.224 1.66532 -0.599669 0
M  V30 3085 C 297.353 3.11381 -1.44557 0
M  V30 3086 C 296.439 3.32514 -2.6324 0
M  V30 3087 N 296.83 3.23969 -3.8843 0
M  V30 3088 C 295.128 3.63343 -2.58647 0
M  V30 3089 C 295.829 3.46062 -4.67564 0
M  V30 3090 N 294.805 3.69407 -3.98797 0
M  V30 3091 H 298.607 1.64529 -2.43531 0
M  V30 3092 H 296.121 0.82401 -1.39942 0
M  V30 3093 H 298.118 3.90667 -1.4555 0
M  V30 3094 H 296.778 3.20674 -0.509731 0
M  V30 3095 H 297.789 3.02669 -4.20252 0
M  V30 3096 H 294.466 3.79556 -1.73906 0
M  V30 3097 H 295.856 3.44963 -5.76585 0
M  V30 3098 N 298.576 1.31904 0.862503 0
M  V30 3099 C 299.523 1.20182 1.9704 0
M  V30 3100 C 300.493 0.0858247 1.65878 0
M  V30 3101 O 301.678 0.26 1.8902 0
M  V30 3102 C 298.818 0.922797 3.32533 0
M  V30 3103 C 297.931 2.12284 3.76244 0
M  V30 3104 C 297.066 1.77996 5.00491 0
M  V30 3105 C 296.105 2.94366 5.36671 0
M  V30 3106 N 295.242 2.60223 6.52095 0
M  V30 3107 H 300.082 2.14951 2.06398 0
M  V30 3108 H 297.619 1.06917 1.01031 0
M  V30 3109 H 299.577 0.741548 4.10557 0
M  V30 3110 H 298.207 0.0119227 3.22798 0
M  V30 3111 H 297.259 2.41461 2.9394 0
M  V30 3112 H 298.571 2.99357 3.98982 0
M  V30 3113 H 297.725 1.56377 5.862 0
M  V30 3114 H 296.464 0.881252 4.79672 0
M  V30 3115 H 295.469 3.16625 4.49476 0
M  V30 3116 H 296.694 3.84957 5.59451 0
M  V30 3117 H 294.64 1.72884 6.32809 0
M  V30 3118 H 294.557 3.40827 6.74814 0
M  V30 3119 H 295.825 2.42016 7.40978 0
M  V30 3120 N 300.054 -1.07777 1.14986 0
M  V30 3121 C 300.986 -2.14769 0.800436 0
M  V30 3122 C 301.999 -1.61739 -0.185595 0
M  V30 3123 O 303.188 -1.78462 0.0370358 0
M  V30 3124 C 300.288 -3.38481 0.168533 0
M  V30 3125 C 299.461 -4.20876 1.1909 0
M  V30 3126 C 298.52 -5.22976 0.581575 0
M  V30 3127 O 297.546 -5.55388 1.24633 0
M  V30 3128 N 298.748 -5.76976 -0.638706 0
M  V30 3129 H 301.513 -2.45348 1.72118 0
M  V30 3130 H 299.074 -1.23645 1.04515 0
M  V30 3131 H 301.066 -4.03916 -0.251764 0
M  V30 3132 H 299.636 -3.05651 -0.655467 0
M  V30 3133 H 298.856 -3.51322 1.78791 0
M  V30 3134 H 300.144 -4.7274 1.88133 0
M  V30 3135 H 299.542 -5.52886 -1.19723 0
M  V30 3136 H 298.099 -6.44061 -1.00142 0
M  V30 3137 N 301.532 -0.945985 -1.26051 0
M  V30 3138 C 302.76 -0.613025 -1.9761 0
M  V30 3139 C 303.175 0.813035 -1.70397 0
M  V30 3140 O 302.532 1.54274 -0.974979 0
M  V30 3141 C 302.583 -0.85159 -3.51326 0
M  V30 3142 O 302.304 -2.22157 -3.77595 0
M  V30 3143 C 303.805 -0.529831 -4.40122 0
M  V30 3144 H 301.025 -0.230593 -0.630133 0
M  V30 3145 H 303.569 -1.268 -1.60443 0
M  V30 3146 H 301.724 -0.243151 -3.86636 0
M  V30 3147 H 302.138 -2.2852 -4.721 0
M  V30 3148 H 303.612 -0.747348 -5.46917 0
M  V30 3149 H 304.089 0.535341 -4.35925 0
M  V30 3150 H 304.695 -1.11721 -4.10364 0
M  V30 3151 N 303.011 1.40521 -0.713556 0
M  V30 3152 C 303.921 2.34522 -0.0606667 0
M  V30 3153 C 304.937 1.57193 0.74607 0
M  V30 3154 O 306.113 1.89591 0.679493 0
M  V30 3155 C 303.178 3.36081 0.851491 0
M  V30 3156 C 302.239 4.29286 0.0349339 0
M  V30 3157 C 301.472 5.25994 0.903649 0
M  V30 3158 O 301.695 5.28616 2.14292 0
M  V30 3159 O 300.629 6.00918 0.343723 0
M  V30 3160 H 304.455 2.91968 -0.835972 0
M  V30 3161 H 302.04 1.41681 -0.47402 0
M  V30 3162 H 303.922 3.98369 1.37404 0
M  V30 3163 H 302.597 2.81052 1.60598 0
M  V30 3164 H 301.504 3.70289 -0.532633 0
M  V30 3165 H 302.837 4.87462 -0.681287 0
M  V30 3166 N 304.489 0.459591 1.5075 0
M  V30 3167 C 305.766 -0.160371 1.94941 0
M  V30 3168 C 306.146 -1.58048 1.39943 0
M  V30 3169 O 305.494 -2.206 0.595629 0
M  V30 3170 C 305.704 -0.115432 3.48809 0
M  V30 3171 C 307.052 -0.310026 4.23467 0
M  V30 3172 O 308.076 -0.192543 3.55679 0
M  V30 3173 O 306.935 -0.546031 5.43765 0
M  V30 3174 H 304.029 -0.117925 0.818549 0
M  V30 3175 H 306.575 0.519169 1.61563 0
M  V30 3176 H 305.347 0.87652 3.81357 0
M  V30 3177 H 304.97 -0.836928 3.88692 0
M  V30 3178 N 305.967 -1.56429 0.191757 0
M  V30 3179 C 306.914 -2.18936 -0.730454 0
M  V30 3180 C 307.884 -1.13557 -1.21219 0
M  V30 3181 O 309.069 -1.41794 -1.27668 0
M  V30 3182 C 306.209 -2.85013 -1.9458 0
M  V30 3183 C 305.322 -4.04909 -1.50574 0
M  V30 3184 C 304.457 -4.58853 -2.67634 0
M  V30 3185 C 303.496 -5.71114 -2.20217 0
M  V30 3186 N 302.633 -6.19478 -3.30442 0
M  V30 3187 H 307.473 -2.97389 -0.190664 0
M  V30 3188 H 305.01 -1.46869 -0.0823694 0
M  V30 3189 H 306.968 -3.21492 -2.65893 0
M  V30 3190 H 305.598 -2.09129 -2.45896 0
M  V30 3191 H 304.65 -3.74115 -0.688605 0
M  V30 3192 H 305.962 -4.86113 -1.11784 0
M  V30 3193 H 305.116 -4.97619 -3.47074 0
M  V30 3194 H 303.855 -3.76749 -3.09696 0
M  V30 3195 H 302.86 -5.31879 -1.3923 0
M  V30 3196 H 304.085 -6.55033 -1.79189 0
M  V30 3197 H 302.031 -5.40297 -3.72041 0
M  V30 3198 H 301.948 -6.95725 -2.9581 0
M  V30 3199 H 303.216 -6.62898 -4.10106 0
M  V30 3200 N 307.445 0.0818655 -1.57387 0
M  V30 3201 C 308.693 0.781368 -1.86384 0
M  V30 3202 C 309.014 1.78618 -0.782342 0
M  V30 3203 O 308.284 1.94976 0.190061 0
M  V30 3204 H 306.864 0.291562 -0.687751 0
M  V30 3205 H 309.526 0.060348 -1.94807 0
M  V30 3206 H 308.622 1.3038 -2.83562 0
M  V30 3207 N 308.923 1.53595 0.353017 0
M  V30 3208 C 310.169 1.70638 1.09593 0
M  V30 3209 C 310.502 0.463286 1.88593 0
M  V30 3210 O 309.777 -0.539597 1.86865 0
M  V30 3211 C 310.06 2.96406 2.04489 0
M  V30 3212 C 309.913 4.30901 1.29014 0
M  V30 3213 C 311.232 3.17812 3.0444 0
M  V30 3214 H 308.351 0.620913 0.397034 0
M  V30 3215 H 310.993 1.86254 0.375446 0
M  V30 3216 H 309.143 2.83223 2.65927 0
M  V30 3217 H 310.815 4.55917 0.702638 0
M  V30 3218 H 309.058 4.29741 0.592071 0
M  V30 3219 H 309.729 5.1506 1.98537 0
M  V30 3220 H 312.205 3.30263 2.53112 0
M  V30 3221 H 311.081 4.07223 3.6805 0
M  V30 3222 H 311.342 2.33669 3.75301 0
M  V30 3223 N 310.401 -0.613514 1.45168 0
M  V30 3224 C 311.333 -1.73825 1.4939 0
M  V30 3225 C 312.346 -1.58175 0.385304 0
M  V30 3226 O 313.535 -1.66165 0.652036 0
M  V30 3227 C 310.635 -3.11758 1.32891 0
M  V30 3228 C 309.808 -3.53704 2.57317 0
M  V30 3229 C 308.867 -4.70579 2.35462 0
M  V30 3230 O 307.893 -4.77996 3.09044 0
M  V30 3231 N 309.095 -5.63454 1.39644 0
M  V30 3232 H 311.86 -1.70669 2.46358 0
M  V30 3233 H 309.421 -0.79862 1.40832 0
M  V30 3234 H 311.413 -3.87692 1.1609 0
M  V30 3235 H 309.983 -3.09456 0.442218 0
M  V30 3236 H 309.203 -2.67794 2.89275 0
M  V30 3237 H 310.491 -3.78486 3.40038 0
M  V30 3238 H 309.889 -5.6017 0.789062 0
M  V30 3239 H 308.446 -6.38944 1.28816 0
M  V30 3240 N 311.879 -1.3236 -0.855495 0
M  V30 3241 C 313.119 -1.24187 -1.62348 0
M  V30 3242 C 313.483 0.193597 -1.91021 0
M  V30 3243 O 314.684 0.39904 -2.65822 0
M  V30 3244 C 312.955 -2.07661 -2.90881 0
M  V30 3245 S 314.514 -2.16505 -3.81669 0
M  V30 3246 H 311.332 -0.442076 -0.556857 0
M  V30 3247 H 313.934 -1.67198 -1.01317 0
M  V30 3248 H 312.638 -3.11018 -2.67761 0
M  V30 3249 H 312.169 -1.65425 -3.56929 0
M  V30 3250 H 314.184 -1.31394 -4.78487 0
M  V30 3251 N 313.357 1.07166 -1.15556 0
M  V30 3252 C 314.267 2.17947 -0.868116 0
M  V30 3253 C 315.283 1.73297 0.156297 0
M  V30 3254 O 316.459 2.01392 -0.0182327 0
M  V30 3255 C 313.524 3.44789 -0.36355 0
M  V30 3256 C 312.585 4.03996 -1.45209 0
M  V30 3257 C 311.818 5.24783 -0.971508 0
M  V30 3258 O 312.041 5.70109 0.182194 0
M  V30 3259 O 310.975 5.75715 -1.75603 0
M  V30 3260 H 314.801 2.4503 -1.79427 0
M  V30 3261 H 312.386 1.16539 -0.934824 0
M  V30 3262 H 314.268 4.21307 -0.0887113 0
M  V30 3263 H 312.943 3.19253 0.534708 0
M  V30 3264 H 311.85 3.29009 -1.78056 0
M  V30 3265 H 313.183 4.33808 -2.32533 0
M  V30 3266 N 314.835 0.952656 1.25548 0
M  V30 3267 C 315.745 0.47782 2.29682 0
M  V30 3268 C 316.761 -0.453859 1.67977 0
M  V30 3269 O 317.937 -0.330587 1.98668 0
M  V30 3270 C 315.002 -0.238655 3.45878 0
M  V30 3271 C 314.063 0.730994 4.23031 0
M  V30 3272 C 313.296 0.0486165 5.33678 0
M  V30 3273 O 313.519 -1.16612 5.58353 0
M  V30 3274 O 312.453 0.733152 5.97418 0
M  V30 3275 H 316.279 1.34312 2.72386 0
M  V30 3276 H 313.864 0.719026 1.30959 0
M  V30 3277 H 315.746 -0.641774 4.16484 0
M  V30 3278 H 314.421 -1.07916 3.05181 0
M  V30 3279 H 313.328 1.18428 3.5486 0
M  V30 3280 H 314.661 1.53946 4.67506 0
M  V30 3281 N 316.313 -1.40141 0.720998 0
M  V30 3282 C 317.223 -2.34486 0.0731031 0
M  V30 3283 C 318.239 -1.57587 -0.737723 0
M  V30 3284 O 319.415 -1.89949 -0.669429 0
M  V30 3285 C 316.48 -3.36528 -0.833656 0
M  V30 3286 C 315.541 -4.29298 -0.0121673 0
M  V30 3287 C 314.774 -5.26466 -0.875742 0
M  V30 3288 O 314.997 -5.29745 -2.11485 0
M  V30 3289 O 313.931 -6.01092 -0.31185 0
M  V30 3290 H 317.757 -2.9152 0.851444 0
M  V30 3291 H 315.342 -1.41427 0.481527 0
M  V30 3292 H 317.224 -3.99093 -1.35289 0
M  V30 3293 H 315.899 -2.81899 -1.59105 0
M  V30 3294 H 314.806 -3.70001 0.552262 0
M  V30 3295 H 316.139 -4.87094 0.707129 0
M  V30 3296 N 317.792 -0.46758 -1.50504 0
M  V30 3297 C 318.702 0.33382 -2.32213 0
M  V30 3298 C 319.718 0.999323 -1.42441 0
M  V30 3299 O 320.894 0.988068 -1.75497 0
M  V30 3300 C 317.959 1.4035 -3.17022 0
M  V30 3301 C 317.02 0.754961 -4.2261 0
M  V30 3302 C 316.253 1.77367 -5.03365 0
M  V30 3303 O 316.476 2.99976 -4.8515 0
M  V30 3304 O 315.41 1.34744 -5.86624 0
M  V30 3305 H 319.236 -0.334067 -3.01857 0
M  V30 3306 H 316.821 -0.229496 -1.47627 0
M  V30 3307 H 318.703 2.02318 -3.69656 0
M  V30 3308 H 317.378 2.05492 -2.5011 0
M  V30 3309 H 316.285 0.0964244 -3.73976 0
M  V30 3310 H 317.618 0.146545 -4.91982 0
M  V30 3311 N 319.27 1.56325 -0.20005 0
M  V30 3312 C 320.18 2.22931 0.730668 0
M  V30 3313 C 321.196 1.22997 1.23076 0
M  V30 3314 O 322.372 1.55748 1.27689 0
M  V30 3315 C 319.437 2.87948 1.93098 0
M  V30 3316 C 318.498 4.03166 1.47497 0
M  V30 3317 C 317.731 4.65073 2.61807 0
M  V30 3318 O 317.954 4.25913 3.79413 0
M  V30 3319 O 316.888 5.54452 2.34237 0
M  V30 3320 H 320.714 3.03084 0.193391 0
M  V30 3321 H 318.299 1.49371 0.0294621 0
M  V30 3322 H 320.181 3.29063 2.6324 0
M  V30 3323 H 318.856 2.10771 2.45677 0
M  V30 3324 H 317.763 3.66664 0.742201 0
M  V30 3325 H 319.096 4.82022 0.995796 0
M  V30 3326 N 320.748 -0.0735177 1.57428 0
M  V30 3327 C 321.658 -1.10547 2.06922 0
M  V30 3328 C 322.674 -1.42506 0.998402 0
M  V30 3329 O 323.85 -1.52717 1.31299 0
M  V30 3330 C 320.915 -2.40019 2.50184 0
M  V30 3331 C 319.976 -2.15046 3.71556 0
M  V30 3332 C 319.209 -3.38345 4.12745 0
M  V30 3333 O 319.432 -4.47399 3.53822 0
M  V30 3334 O 318.366 -3.2666 5.05546 0
M  V30 3335 H 322.192 -0.715013 2.95163 0
M  V30 3336 H 319.777 -0.287531 1.46607 0
M  V30 3337 H 321.659 -3.16218 2.78539 0
M  V30 3338 H 320.334 -2.78447 1.65072 0
M  V30 3339 H 319.241 -1.36558 3.48285 0
M  V30 3340 H 320.574 -1.81499 4.57514 0
M  V30 3341 N 322.226 -1.5378 -0.344866 0
M  V30 3342 C 323.173 -1.81676 -1.42346 0
M  V30 3343 C 324.143 -0.662376 -1.52321 0
M  V30 3344 O 325.328 -0.906675 -1.67881 0
M  V30 3345 C 322.468 -2.03087 -2.79015 0
M  V30 3346 C 321.581 -3.30799 -2.77842 0
M  V30 3347 C 320.716 -3.42285 -4.0622 0
M  V30 3348 C 319.755 -4.6395 -3.9927 0
M  V30 3349 N 318.892 -4.72477 -5.19336 0
M  V30 3350 H 323.732 -2.73703 -1.17858 0
M  V30 3351 H 321.269 -1.35568 -0.570949 0
M  V30 3352 H 323.227 -2.1349 -3.58438 0
M  V30 3353 H 321.857 -1.14375 -3.01858 0
M  V30 3354 H 320.909 -3.29244 -1.90533 0
M  V30 3355 H 322.221 -4.20314 -2.68584 0
M  V30 3356 H 321.375 -3.52113 -4.94066 0
M  V30 3357 H 320.114 -2.50823 -4.18258 0
M  V30 3358 H 319.119 -4.54201 -3.09809 0
M  V30 3359 H 320.344 -5.56775 -3.88817 0
M  V30 3360 H 318.29 -3.83924 -5.3192 0
M  V30 3361 H 318.207 -5.55927 -5.12329 0
M  V30 3362 H 319.475 -4.86613 -6.08957 0
M  V30 3363 N 323.704 0.605807 -1.45491 0
M  V30 3364 C 324.651 1.7164 -1.54299 0
M  V30 3365 C 325.621 1.61486 -0.388761 0
M  V30 3366 O 326.806 1.81039 -0.602445 0
M  V30 3367 C 323.946 3.09953 -1.51734 0
M  V30 3368 C 323.059 3.309 -2.77721 0
M  V30 3369 C 322.194 4.59329 -2.66816 0
M  V30 3370 C 321.233 4.7354 -3.87848 0
M  V30 3371 N 320.37 5.9327 -3.75467 0
M  V30 3372 H 325.21 1.63449 -2.49176 0
M  V30 3373 H 322.747 0.796957 -1.23641 0
M  V30 3374 H 324.705 3.89977 -1.48235 0
M  V30 3375 H 323.335 3.17098 -0.604068 0
M  V30 3376 H 322.387 2.44639 -2.913 0
M  V30 3377 H 323.699 3.37274 -3.67488 0
M  V30 3378 H 322.853 5.4755 -2.61292 0
M  V30 3379 H 321.592 4.55355 -1.74651 0
M  V30 3380 H 320.597 3.83741 -3.93729 0
M  V30 3381 H 321.822 4.79309 -4.81082 0
M  V30 3382 H 319.768 5.90338 -2.86072 0
M  V30 3383 H 319.685 6.00811 -4.5887 0
M  V30 3384 H 320.953 6.83984 -3.73879 0
M  V30 3385 N 325.182 1.32811 0.848464 0
M  V30 3386 C 326.459 1.14334 1.58704 0
M  V30 3387 C 326.839 -0.293948 2.09043 0
M  V30 3388 O 326.187 -1.29153 1.88499 0
M  V30 3389 C 326.397 2.17626 2.72837 0
M  V30 3390 C 327.745 2.51282 3.42261 0
M  V30 3391 O 328.769 2.16219 2.83068 0
M  V30 3392 O 327.628 3.11413 4.49093 0
M  V30 3393 H 324.722 0.441601 0.699226 0
M  V30 3394 H 327.268 1.44362 0.892053 0
M  V30 3395 H 326.04 3.14211 2.3321 0
M  V30 3396 H 325.663 1.88628 3.50008 0
M  V30 3397 N 326.66 -1.06551 1.16123 0
M  V30 3398 C 327.885 -1.83544 0.965735 0
M  V30 3399 C 328.31 -1.81843 -0.481102 0
M  V30 3400 O 327.668 -1.21732 -1.34354 0
M  V30 3401 C 327.716 -3.28169 1.49457 0
M  V30 3402 O 326.82 -4.0643 0.699157 0
M  V30 3403 H 326.161 -0.568026 0.343864 0
M  V30 3404 H 328.691 -1.34362 1.54299 0
M  V30 3405 H 328.701 -3.78992 1.51092 0
M  V30 3406 H 327.376 -3.28722 2.54784 0
M  V30 3407 H 325.953 -3.65216 0.7531 0
M  V30 3408 N 328.138 -0.959301 -1.25041 0
M  V30 3409 C 329.386 -0.615393 -1.92503 0
M  V30 3410 C 329.707 0.850969 -1.75452 0
M  V30 3411 O 328.977 1.60658 -1.12098 0
M  V30 3412 H 327.557 -0.224613 -0.712431 0
M  V30 3413 H 330.219 -1.21855 -1.5211 0
M  V30 3414 H 329.315 -0.848738 -3.00338 0
M  V30 3415 N 329.616 1.39756 -0.72842 0
M  V30 3416 C 330.862 2.00942 -0.273892 0
M  V30 3417 C 331.195 1.57656 1.13394 0
M  V30 3418 O 330.47 0.802434 1.77176 0
M  V30 3419 C 330.753 3.58211 -0.368346 0
M  V30 3420 C 330.606 4.11534 -1.81548 0
M  V30 3421 C 331.925 4.39372 0.253054 0
M  V30 3422 H 329.044 0.730047 -0.100996 0
M  V30 3423 H 331.686 1.66056 -0.923337 0
M  V30 3424 H 329.836 3.88061 0.184588 0
M  V30 3425 H 331.508 3.92431 -2.42478 0
M  V30 3426 H 329.751 3.65341 -2.33898 0
M  V30 3427 H 330.422 5.20682 -1.83288 0
M  V30 3428 H 332.898 4.15527 -0.218224 0
M  V30 3429 H 331.774 5.48677 0.156585 0
M  V30 3430 H 332.035 4.21358 1.33826 0
M  V30 3431 N 331.094 0.475555 1.50254 0
M  V30 3432 C 332.057 -0.305016 2.27161 0
M  V30 3433 C 333.057 -0.916519 1.32123 0
M  V30 3434 O 334.247 -0.785003 1.5551 0
M  V30 3435 C 331.379 -1.43496 3.09227 0
M  V30 3436 H 332.572 0.369511 2.97615 0
M  V30 3437 H 330.125 0.229747 1.54602 0
M  V30 3438 H 330.86 -2.14441 2.43281 0
M  V30 3439 H 330.645 -1.00223 3.79075 0
M  V30 3440 H 332.135 -1.98548 3.67381 0
M  V30 3441 N 332.573 -1.56217 0.208337 0
M  V30 3442 C 333.798 -2.02782 -0.435222 0
M  V30 3443 C 334.223 -1.08738 -1.53485 0
M  V30 3444 O 333.581 -0.0731855 -1.81152 0
M  V30 3445 C 333.629 -3.47687 -0.956335 0
M  V30 3446 O 332.733 -3.56773 -2.06849 0
M  V30 3447 H 332.074 -0.656403 -0.100158 0
M  V30 3448 H 334.604 -2.02033 0.3231 0
M  V30 3449 H 334.614 -3.87745 -1.26955 0
M  V30 3450 H 333.289 -4.15624 -0.15143 0
M  V30 3451 H 331.866 -3.28597 -1.76292 0
M  V30 3452 N 334.051 0.0651679 -1.57465 0
M  V30 3453 C 335.279 0.775808 -1.91804 0
M  V30 3454 C 335.694 1.70782 -0.804916 0
M  V30 3455 O 335.051 1.81153 0.221311 0
M  V30 3456 C 335.102 1.56381 -3.25925 0
M  V30 3457 O 334.823 0.669248 -4.32958 0
M  V30 3458 C 336.324 2.37485 -3.7432 0
M  V30 3459 H 333.544 0.2202 -0.63384 0
M  V30 3460 H 336.088 0.0334587 -2.04473 0
M  V30 3461 H 334.243 2.25837 -3.14764 0
M  V30 3462 H 334.657 1.21801 -5.10162 0
M  V30 3463 H 336.131 2.88223 -4.70778 0
M  V30 3464 H 336.608 3.17307 -3.03666 0
M  V30 3465 H 337.214 1.73173 -3.88447 0
M  V30 3466 N 335.529 1.53961 0.336706 0
M  V30 3467 C 336.439 1.85432 1.43708 0
M  V30 3468 C 337.455 0.745053 1.57242 0
M  V30 3469 O 338.631 1.03804 1.72588 0
M  V30 3470 C 335.696 2.06349 2.78605 0
M  V30 3471 C 334.757 3.30191 2.74358 0
M  V30 3472 C 333.99 3.50101 4.02822 0
M  V30 3473 O 334.213 2.7371 5.00439 0
M  V30 3474 O 333.147 4.43547 4.06878 0
M  V30 3475 H 336.973 2.78975 1.20028 0
M  V30 3476 H 334.558 1.39701 0.52952 0
M  V30 3477 H 336.44 2.21513 3.58483 0
M  V30 3478 H 335.115 1.15995 3.02203 0
M  V30 3479 H 334.022 3.20425 1.93078 0
M  V30 3480 H 335.355 4.2056 2.55715 0
M  V30 3481 N 337.007 -0.598083 1.45811 0
M  V30 3482 C 338.284 -1.35777 1.40797 0
M  V30 3483 C 338.664 -2.10935 0.083462 0
M  V30 3484 O 338.012 -2.08505 -0.934763 0
M  V30 3485 C 338.222 -2.29666 2.62783 0
M  V30 3486 C 339.57 -2.91977 3.08277 0
M  V30 3487 O 340.594 -2.39984 2.63223 0
M  V30 3488 O 339.453 -3.86376 3.86491 0
M  V30 3489 H 336.547 -0.609291 0.55919 0
M  V30 3490 H 339.093 -0.620379 1.57954 0
M  V30 3491 H 337.865 -1.73454 3.50756 0
M  V30 3492 H 337.488 -3.1077 2.48008 0
M  V30 3493 N 338.485 -1.33259 -0.841409 0
M  V30 3494 C 339.71 -1.2775 -1.63385 0
M  V30 3495 C 340.135 0.149188 -1.87507 0
M  V30 3496 O 339.493 1.10498 -1.43736 0
M  V30 3497 C 339.541 -2.05571 -2.96265 0
M  V30 3498 O 338.645 -1.41257 -3.87453 0
M  V30 3499 H 337.986 -0.439627 -0.497618 0
M  V30 3500 H 340.516 -1.75782 -1.04699 0
M  V30 3501 H 340.526 -2.16241 -3.45982 0
M  V30 3502 H 339.201 -3.09309 -2.7803 0
M  V30 3503 H 337.778 -1.39217 -3.45938 0
M  V30 3504 N 339.963 1.05934 -1.16686 0
M  V30 3505 C 341.188 1.83029 -0.975455 0
M  V30 3506 C 341.613 1.82096 0.471452 0
M  V30 3507 O 340.971 1.22443 1.33706 0
M  V30 3508 C 341.019 3.27372 -1.51195 0
M  V30 3509 O 340.123 4.06054 -0.720701 0
M  V30 3510 H 339.464 0.566194 -0.346872 0
M  V30 3511 H 341.994 1.33541 -1.55009 0
M  V30 3512 H 342.004 3.78186 -1.53099 0
M  V30 3513 H 340.679 3.27366 -2.56523 0
M  V30 3514 H 339.256 3.64812 -0.772458 0
M  V30 3515 N 341.441 0.965919 1.2453 0
M  V30 3516 C 342.666 0.643971 1.97149 0
M  V30 3517 C 343.091 -0.779487 1.71189 0
M  V30 3518 O 342.449 -1.5288 0.974553 0
M  V30 3519 C 342.497 0.922557 3.48599 0
M  V30 3520 O 341.601 0.00707672 4.12399 0
M  V30 3521 H 340.942 0.243647 0.617683 0
M  V30 3522 H 343.472 1.29558 1.58353 0
M  V30 3523 H 343.482 0.853373 3.98976 0
M  V30 3524 H 342.157 1.95996 3.66822 0
M  V30 3525 H 340.734 0.12943 3.72675 0
M  V30 3526 N 342.919 -1.39368 0.735821 0
M  V30 3527 C 344.144 -2.05319 0.293052 0
M  V30 3528 C 344.569 -1.55115 -1.064 0
M  V30 3529 O 343.927 -0.695261 -1.67439 0
M  V30 3530 C 343.975 -3.59305 0.305323 0
M  V30 3531 O 343.079 -4.06299 -0.706761 0
M  V30 3532 H 342.42 -0.650529 0.13307 0
M  V30 3533 H 344.95 -1.78386 1.00197 0
M  V30 3534 H 344.96 -4.07724 0.149997 0
M  V30 3535 H 343.635 -3.95207 1.29553 0
M  V30 3536 H 342.212 -3.69292 -0.517504 0
M  V30 3537 N 344.397 -0.483516 -1.5 0
M  V30 3538 C 345.347 0.32306 -2.257 0
M  V30 3539 C 346.331 0.950755 -1.29805 0
M  V30 3540 O 347.523 0.861247 -1.54634 0
M  V30 3541 C 344.652 1.39724 -3.13579 0
M  V30 3542 C 343.738 0.776663 -4.16928 0
M  V30 3543 N 344.129 -0.1104 -5.0568 0
M  V30 3544 C 342.427 1.03922 -4.33724 0
M  V30 3545 C 343.128 -0.46387 -5.79848 0
M  V30 3546 N 342.104 0.163987 -5.43353 0
M  V30 3547 H 345.906 -0.360086 -2.91686 0
M  V30 3548 H 343.42 -0.298456 -1.59634 0
M  V30 3549 H 345.417 1.98837 -3.66428 0
M  V30 3550 H 344.077 2.08225 -2.49143 0
M  V30 3551 H 345.088 -0.480069 -5.1567 0
M  V30 3552 H 341.765 1.71829 -3.80501 0
M  V30 3553 H 343.155 -1.18854 -6.61304 0
M  V30 3554 N 345.875 1.56104 -0.216619 0
M  V30 3555 C 347.124 1.97348 0.416744 0
M  V30 3556 C 347.437 1.10715 1.6125 0
M  V30 3557 O 348.643 1.41836 2.31506 0
M  V30 3558 C 347.099 3.51059 0.792835 0
M  V30 3559 C 346.707 4.46387 -0.379828 0
M  V30 3560 C 348.451 4.01026 1.39208 0
M  V30 3561 C 346.358 5.91397 0.0184223 0
M  V30 3562 H 345.288 0.736942 0.159475 0
M  V30 3563 H 347.939 1.80827 -0.31205 0
M  V30 3564 H 346.321 3.63162 1.57891 0
M  V30 3565 H 347.495 4.46029 -1.15737 0
M  V30 3566 H 345.81 4.06734 -0.891979 0
M  V30 3567 H 348.407 5.0686 1.70286 0
M  V30 3568 H 348.75 3.46587 2.30614 0
M  V30 3569 H 349.283 3.92125 0.669537 0
M  V30 3570 H 346.022 6.49807 -0.862002 0
M  V30 3571 H 345.542 5.94961 0.760384 0
M  V30 3572 H 347.221 6.45455 0.446818 0
M  V30 3573 N 347.353 -0.0568162 1.57498 0
M  V30 3574 C 348.581 -0.765626 1.92213 0
M  V30 3575 C 348.996 -1.70353 0.813961 0
M  V30 3576 O 348.353 -1.81268 -0.211701 0
M  V30 3577 C 348.404 -1.5465 3.2675 0
M  V30 3578 O 348.125 -0.646278 4.33307 0
M  V30 3579 C 349.626 -2.35497 3.75574 0
M  V30 3580 H 346.846 -0.216835 0.634999 0
M  V30 3581 H 349.39 -0.0226146 2.04487 0
M  V30 3582 H 347.545 -2.24165 3.15957 0
M  V30 3583 H 347.959 -1.19093 5.108 0
M  V30 3584 H 349.433 -2.85722 4.72299 0
M  V30 3585 H 349.91 -3.15692 3.05344 0
M  V30 3586 H 350.516 -1.7111 3.8936 0
M  V30 3587 N 348.832 -1.54138 -0.328536 0
M  V30 3588 C 349.795 -1.82462 -1.38709 0
M  V30 3589 C 350.795 -0.696229 -1.44946 0
M  V30 3590 O 351.985 -0.964535 -1.4506 0
M  V30 3591 C 349.117 -1.98018 -2.77492 0
M  V30 3592 H 350.31 -2.77037 -1.14851 0
M  V30 3593 H 347.863 -1.45779 -0.563751 0
M  V30 3594 H 348.598 -1.05637 -3.06613 0
M  V30 3595 H 348.383 -2.80124 -2.74359 0
M  V30 3596 H 349.873 -2.21396 -3.54081 0
M  V30 3597 N 350.31 0.590341 -1.46126 0
M  V30 3598 C 351.273 1.68194 -1.55703 0
M  V30 3599 C 352.273 1.54808 -0.434868 0
M  V30 3600 O 353.463 1.59564 -0.698928 0
M  V30 3601 C 350.595 3.07575 -1.47005 0
M  V30 3602 H 351.788 1.61064 -2.52979 0
M  V30 3603 H 349.341 0.807541 -1.33823 0
M  V30 3604 H 350.076 3.20268 -0.509785 0
M  V30 3605 H 349.861 3.187 -2.28414 0
M  V30 3606 H 351.351 3.87055 -1.56776 0
M  V30 3607 N 351.788 1.33704 0.83433 0
M  V30 3608 C 352.751 1.24244 1.92603 0
M  V30 3609 C 353.751 0.160383 1.59998 0
M  V30 3610 O 354.941 0.412228 1.69252 0
M  V30 3611 C 352.073 0.91555 3.28376 0
M  V30 3612 H 353.266 2.21287 2.02416 0
M  V30 3613 H 350.819 1.17827 1.02696 0
M  V30 3614 H 351.554 -0.0521886 3.24258 0
M  V30 3615 H 351.339 1.69811 3.53422 0
M  V30 3616 H 352.829 0.874231 4.08347 0
M  V30 3617 N 353.266 -1.05314 1.17247 0
M  V30 3618 C 354.515 -1.77685 0.954521 0
M  V30 3619 C 354.828 -1.88616 -0.518025 0
M  V30 3620 O 356.034 -2.57714 -0.854144 0
M  V30 3621 C 354.49 -3.19402 1.65863 0
M  V30 3622 C 354.098 -3.16605 3.16963 0
M  V30 3623 C 355.842 -3.96237 1.52303 0
M  V30 3624 C 353.749 -4.53103 3.80068 0
M  V30 3625 H 352.679 -0.666 0.353496 0
M  V30 3626 H 355.33 -1.1805 1.40486 0
M  V30 3627 H 353.712 -3.79355 1.13602 0
M  V30 3628 H 354.886 -2.66176 3.76148 0
M  V30 3629 H 353.201 -2.53268 3.30521 0
M  V30 3630 H 355.798 -4.97157 1.96822 0
M  V30 3631 H 356.141 -4.136 0.473401 0
M  V30 3632 H 356.674 -3.42829 2.01775 0
M  V30 3633 H 353.413 -4.40946 4.85023 0
M  V30 3634 H 352.933 -5.03686 3.2567 0
M  V30 3635 H 354.612 -5.22045 3.82202 0
M  V30 3636 N 354.744 -0.972509 -1.24016 0
M  V30 3637 C 355.707 -0.511403 -2.23422 0
M  V30 3638 C 356.707 0.394679 -1.55881 0
M  V30 3639 O 357.897 0.189469 -1.73167 0
M  V30 3640 C 355.029 0.258769 -3.39916 0
M  V30 3641 H 356.222 -1.39024 -2.6573 0
M  V30 3642 H 353.775 -0.757585 -1.36713 0
M  V30 3643 H 354.51 1.1545 -3.03054 0
M  V30 3644 H 354.295 -0.391522 -3.9014 0
M  V30 3645 H 355.785 0.570244 -4.13688 0
M  V30 3646 N 356.222 1.38976 -0.743202 0
M  V30 3647 C 357.185 2.28901 -0.117014 0
M  V30 3648 C 358.185 1.46698 0.658503 0
M  V30 3649 O 359.375 1.67274 0.486305 0
M  V30 3650 C 356.507 3.30309 0.84315 0
M  V30 3651 H 357.7 2.8578 -0.909373 0
M  V30 3652 H 355.253 1.47761 -0.509547 0
M  V30 3653 H 355.988 2.785 1.66157 0
M  V30 3654 H 355.773 3.91029 0.289594 0
M  V30 3655 H 357.263 3.97577 1.2776 0
M  V30 3656 N 357.7 0.491464 1.49741 0
M  V30 3657 C 358.647 -0.292027 2.28945 0
M  V30 3658 C 359.617 -0.968973 1.34908 0
M  V30 3659 O 360.802 -0.97748 1.6386 0
M  V30 3660 C 357.942 -1.35617 3.17336 0
M  V30 3661 C 357.055 -0.691957 4.26422 0
M  V30 3662 C 356.19 -1.73572 5.02042 0
M  V30 3663 C 355.229 -1.05286 6.02977 0
M  V30 3664 N 354.366 -2.0404 6.71798 0
M  V30 3665 H 359.206 0.389654 2.95442 0
M  V30 3666 H 356.743 0.204003 1.45679 0
M  V30 3667 H 358.701 -1.98502 3.66951 0
M  V30 3668 H 357.331 -2.00674 2.52844 0
M  V30 3669 H 356.383 0.0499523 3.80367 0
M  V30 3670 H 357.695 -0.153946 4.98562 0
M  V30 3671 H 356.849 -2.43987 5.55478 0
M  V30 3672 H 355.588 -2.30757 4.29654 0
M  V30 3673 H 354.593 -0.334446 5.48782 0
M  V30 3674 H 355.818 -0.487636 6.77347 0
M  V30 3675 H 353.764 -2.60205 6.02187 0
M  V30 3676 H 353.681 -1.55279 7.39881 0
M  V30 3677 H 354.949 -2.73772 7.29842 0
M  V30 3678 N 359.178 -1.55987 0.224894 0
M  V30 3679 C 360.427 -1.97566 -0.406273 0
M  V30 3680 C 360.74 -1.11569 -1.6066 0
M  V30 3681 O 361.946 -1.43062 -2.3075 0
M  V30 3682 C 360.402 -3.51474 -0.774207 0
M  V30 3683 C 360.01 -4.46179 0.403496 0
M  V30 3684 C 361.754 -4.01758 -1.37079 0
M  V30 3685 C 359.661 -5.91399 0.0129412 0
M  V30 3686 H 358.591 -0.737777 -0.155565 0
M  V30 3687 H 361.242 -1.80659 0.321635 0
M  V30 3688 H 359.624 -3.63994 -1.55963 0
M  V30 3689 H 360.798 -4.45409 1.18101 0
M  V30 3690 H 359.113 -4.06255 0.913536 0
M  V30 3691 H 361.71 -5.07756 -1.67596 0
M  V30 3692 H 362.053 -3.47805 -2.28773 0
M  V30 3693 H 362.586 -3.92475 -0.648733 0
M  V30 3694 H 359.325 -6.49341 0.896451 0
M  V30 3695 H 358.845 -5.95356 -0.728821 0
M  V30 3696 H 360.524 -6.45683 -0.412582 0
M  V30 3697 N 360.656 0.0484629 -1.57525 0
M  V30 3698 C 362.067 0.597486 -1.76881 0
M  V30 3699 C 362.418 1.76664 -0.853475 0
M  V30 3700 O 361.543 2.16357 -0.0433656 0
M  V30 3701 C 362.138 1.09066 -3.20765 0
M  V30 3702 C 360.697 1.58535 -3.41385 0
M  V30 3703 C 359.844 0.514868 -2.72478 0
M  V30 3704 H 362.795 -0.177758 -1.57701 0
M  V30 3705 H 362.816 1.95875 -3.2621 0
M  V30 3706 H 362.328 0.239521 -3.8736 0
M  V30 3707 H 360.429 2.45898 -2.79937 0
M  V30 3708 H 360.542 1.64622 -4.49929 0
M  V30 3709 H 358.906 0.965407 -2.35695 0
M  V30 3710 H 359.689 -0.32648 -3.41744 0
M  V30 3711 N 362.134 1.5431 0.320358 0
M  V30 3712 C 363.411 1.63322 1.07635 0
M  V30 3713 C 363.791 0.46912 2.05821 0
M  V30 3714 O 363.139 -0.536274 2.22118 0
M  V30 3715 C 363.349 3.00465 1.77544 0
M  V30 3716 C 364.697 3.56621 2.30449 0
M  V30 3717 O 365.721 3.02791 1.87606 0
M  V30 3718 O 364.58 4.5083 3.08892 0
M  V30 3719 H 361.674 0.661502 0.496331 0
M  V30 3720 H 364.22 1.66656 0.319992 0
M  V30 3721 H 362.992 3.76629 1.06143 0
M  V30 3722 H 362.615 3.00824 2.59982 0
M  V30 3723 N 363.613 -0.582584 1.46437 0
M  V30 3724 C 364.838 -1.37168 1.55563 0
M  V30 3725 C 365.263 -1.87061 0.19743 0
M  V30 3726 O 364.621 -1.61572 -0.822451 0
M  V30 3727 C 364.669 -2.53511 2.56446 0
M  V30 3728 O 363.773 -3.54953 2.09958 0
M  V30 3729 H 363.114 -0.408494 0.523477 0
M  V30 3730 H 365.644 -0.706646 1.9201 0
M  V30 3731 H 365.654 -3.00426 2.76058 0
M  V30 3732 H 364.329 -2.16549 3.55076 0
M  V30 3733 H 362.906 -3.14516 2.00334 0
M  V30 3734 N 365.091 -1.34144 -0.827227 0
M  V30 3735 C 366.34 -1.25602 -1.5782 0
M  V30 3736 C 366.653 0.173445 -1.94829 0
M  V30 3737 O 367.859 0.380984 -2.68814 0
M  V30 3738 C 366.315 -2.20151 -2.84713 0
M  V30 3739 C 365.923 -3.68331 -2.55021 0
M  V30 3740 C 367.667 -2.20508 -3.62735 0
M  V30 3741 C 365.574 -4.54762 -3.78082 0
M  V30 3742 H 364.504 -0.466573 -0.592306 0
M  V30 3743 H 367.155 -1.59283 -0.911116 0
M  V30 3744 H 365.537 -1.79417 -3.53023 0
M  V30 3745 H 366.711 -4.17577 -1.94849 0
M  V30 3746 H 365.026 -3.7038 -1.90283 0
M  V30 3747 H 367.623 -2.82306 -4.54101 0
M  V30 3748 H 367.966 -1.20322 -3.98533 0
M  V30 3749 H 368.499 -2.59664 -3.01362 0
M  V30 3750 H 365.238 -5.55867 -3.47407 0
M  V30 3751 H 364.758 -4.10254 -4.37552 0
M  V30 3752 H 366.437 -4.69153 -4.45538 0
M  V30 3753 N 366.569 1.04691 -1.17803 0
M  V30 3754 C 367.818 1.77176 -0.963931 0
M  V30 3755 C 368.131 1.88888 0.508015 0
M  V30 3756 O 369.337 2.58164 0.840465 0
M  V30 3757 C 367.793 3.18518 -1.67555 0
M  V30 3758 C 367.401 3.14919 -3.18637 0
M  V30 3759 C 369.145 3.95424 -1.54402 0
M  V30 3760 C 367.052 4.51081 -3.82466 0
M  V30 3761 H 365.982 0.664116 -0.357023 0
M  V30 3762 H 368.633 1.17303 -1.4111 0
M  V30 3763 H 367.015 3.78748 -1.15613 0
M  V30 3764 H 368.189 2.64178 -3.77554 0
M  V30 3765 H 366.504 2.51512 -3.31859 0
M  V30 3766 H 369.101 4.96106 -1.99456 0
M  V30 3767 H 369.444 4.13343 -0.495329 0
M  V30 3768 H 369.977 3.41754 -2.0359 0
M  V30 3769 H 366.716 4.38368 -4.87354 0
M  V30 3770 H 366.236 5.01951 -3.28337 0
M  V30 3771 H 367.915 5.2001 -3.84965 0
M  V30 3772 N 368.047 0.979072 1.23499 0
M  V30 3773 C 369.272 0.664845 1.96455 0
M  V30 3774 C 369.697 -0.761287 1.72006 0
M  V30 3775 O 369.055 -1.51837 0.990713 0
M  V30 3776 C 369.103 0.959479 3.47601 0
M  V30 3777 O 368.207 0.0508168 4.12369 0
M  V30 3778 H 367.548 0.250185 0.615064 0
M  V30 3779 H 370.078 1.31231 1.5697 0
M  V30 3780 H 370.088 0.895642 3.98048 0
M  V30 3781 H 368.763 1.99876 3.64723 0
M  V30 3782 H 367.34 0.16895 3.72517 0
M  V30 3783 N 369.525 -1.3858 0.750561 0
M  V30 3784 C 370.941 -1.53759 0.427824 0
M  V30 3785 C 371.141 -1.71401 -1.05943 0
M  V30 3786 O 370.197 -1.72331 -1.84549 0
M  V30 3787 C 371.51 -2.74642 1.22443 0
M  V30 3788 C 373.058 -2.88489 1.2142 0
M  V30 3789 C 373.533 -4.12329 1.9937 0
M  V30 3790 N 375.024 -4.194 1.96616 0
M  V30 3791 C 375.759 -5.14209 2.53727 0
M  V30 3792 N 375.255 -6.14709 3.19539 0
M  V30 3793 N 377.048 -5.06537 2.43673 0
M  V30 3794 H 369.199 -1.25377 1.71447 0
M  V30 3795 H 371.462 -0.608844 0.726645 0
M  V30 3796 H 371.168 -2.68 2.27747 0
M  V30 3797 H 371.042 -3.67745 0.839273 0
M  V30 3798 H 373.429 -2.94614 0.169232 0
M  V30 3799 H 373.51 -1.96406 1.63885 0
M  V30 3800 H 373.154 -4.06966 3.03877 0
M  V30 3801 H 373.084 -5.03486 1.54302 0
M  V30 3802 H 375.575 -3.47421 1.48684 0
M  V30 3803 H 375.888 -6.8354 3.60545 0
M  V30 3804 H 374.233 -6.1505 3.23633 0
M  V30 3805 H 377.424 -4.26962 1.91889 0
M  V30 3806 H 377.597 -5.80245 2.88479 0
M  V30 3807 N 371.003 -0.499398 -1.49478 0
M  V30 3808 C 372.251 0.0455996 -2.02049 0
M  V30 3809 C 372.572 1.37633 -1.38138 0
M  V30 3810 O 371.842 1.8842 -0.536166 0
M  V30 3811 H 370.422 0.0198416 -0.746736 0
M  V30 3812 H 373.084 -0.656274 -1.83519 0
M  V30 3813 H 372.18 0.176445 -3.11601 0
M  V30 3814 N 372.481 1.55866 -0.233164 0
M  V30 3815 C 373.727 1.98897 0.395959 0
M  V30 3816 C 374.06 1.12091 1.58585 0
M  V30 3817 O 373.335 0.181182 1.93654 0
M  V30 3818 C 373.618 3.50658 0.819224 0
M  V30 3819 C 373.471 4.48233 -0.375109 0
M  V30 3820 C 374.79 4.07135 1.67121 0
M  V30 3821 H 371.909 0.723102 0.142451 0
M  V30 3822 H 374.551 1.87082 -0.331725 0
M  V30 3823 H 372.701 3.60857 1.43925 0
M  V30 3824 H 374.373 4.50031 -1.01341 0
M  V30 3825 H 372.616 4.21624 -1.02058 0
M  V30 3826 H 373.287 5.51988 -0.0358328 0
M  V30 3827 H 375.763 3.99952 1.14795 0
M  V30 3828 H 374.639 5.13615 1.93625 0
M  V30 3829 H 374.9 3.54736 2.63846 0
M  V30 3830 N 373.959 -0.0401083 1.57549 0
M  V30 3831 C 374.891 -1.07149 2.02612 0
M  V30 3832 C 375.904 -1.33126 0.937085 0
M  V30 3833 O 377.093 -1.30808 1.21456 0
M  V30 3834 C 374.193 -2.41561 2.37701 0
M  V30 3835 C 373.366 -2.35096 3.68848 0
M  V30 3836 C 372.425 -3.51867 3.91249 0
M  V30 3837 O 371.451 -3.3186 4.62447 0
M  V30 3838 N 372.653 -4.73351 3.36035 0
M  V30 3839 H 375.418 -0.687485 2.91708 0
M  V30 3840 H 372.979 -0.228248 1.60283 0
M  V30 3841 H 374.971 -3.18379 2.49833 0
M  V30 3842 H 373.541 -2.71846 1.54332 0
M  V30 3843 H 372.761 -1.4345 3.67173 0
M  V30 3844 H 374.049 -2.27908 4.54901 0
M  V30 3845 H 373.447 -4.92507 2.78304 0
M  V30 3846 H 372.004 -5.47572 3.53565 0
M  V30 3847 N 375.437 -1.54477 -0.31217 0
M  V30 3848 C 376.683 -1.73483 -1.0503 0
M  V30 3849 C 377.016 -0.513125 -1.87298 0
M  V30 3850 O 376.291 0.489864 -1.8823 0
M  V30 3851 C 376.574 -3.01723 -1.96558 0
M  V30 3852 C 376.427 -4.3417 -1.17545 0
M  V30 3853 C 377.746 -3.25772 -2.95907 0
M  V30 3854 H 374.865 -0.631222 -0.380432 0
M  V30 3855 H 377.507 -1.87184 -0.325932 0
M  V30 3856 H 375.657 -2.90174 -2.58324 0
M  V30 3857 H 377.329 -4.5762 -0.581513 0
M  V30 3858 H 375.572 -4.31159 -0.477925 0
M  V30 3859 H 376.243 -5.20143 -1.84811 0
M  V30 3860 H 378.719 -3.36857 -2.44267 0
M  V30 3861 H 377.595 -4.16838 -3.57123 0
M  V30 3862 H 377.856 -2.43537 -3.68974 0
M  V30 3863 N 376.915 0.57481 -1.46744 0
M  V30 3864 C 377.845 1.69337 -1.60771 0
M  V30 3865 C 378.826 1.63825 -0.457736 0
M  V30 3866 O 380.011 1.8172 -0.684947 0
M  V30 3867 C 377.141 3.0798 -1.60517 0
M  V30 3868 C 376.095 3.28327 -2.74564 0
M  V30 3869 C 375.421 4.67578 -2.59373 0
M  V30 3870 C 376.721 3.15398 -4.16319 0
M  V30 3871 H 378.415 1.57853 -2.54407 0
M  V30 3872 H 375.961 0.75799 -1.22436 0
M  V30 3873 H 377.914 3.86061 -1.68923 0
M  V30 3874 H 376.638 3.20381 -0.634305 0
M  V30 3875 H 375.297 2.52649 -2.65639 0
M  V30 3876 H 374.945 4.76755 -1.60353 0
M  V30 3877 H 374.645 4.82144 -3.35873 0
M  V30 3878 H 376.169 5.47817 -2.69682 0
M  V30 3879 H 377.583 3.83315 -4.26313 0
M  V30 3880 H 375.98 3.41482 -4.93468 0
M  V30 3881 H 377.05 2.12372 -4.3592 0
M  V30 3882 N 378.394 1.34581 0.820102 0
M  V30 3883 C 379.805 1.24298 1.39309 0
M  V30 3884 C 380.156 -0.130351 1.95767 0
M  V30 3885 O 379.281 -1.0308 1.90272 0
M  V30 3886 C 379.876 2.25054 2.53251 0
M  V30 3887 C 378.435 2.18552 3.0645 0
M  V30 3888 C 377.582 2.11503 1.79337 0
M  V30 3889 H 380.533 1.45906 0.624262 0
M  V30 3890 H 380.554 1.86917 3.31425 0
M  V30 3891 H 380.066 3.24996 2.1213 0
M  V30 3892 H 378.167 1.21976 3.52069 0
M  V30 3893 H 378.28 3.0993 3.65349 0
M  V30 3894 H 376.644 1.57268 2.00347 0
M  V30 3895 H 377.427 3.13284 1.40386 0
M  V30 3896 N 379.872 -1.04064 1.18357 0
M  V30 3897 C 381.288 -1.2947 0.933258 0
M  V30 3898 C 381.488 -1.97466 -0.401169 0
M  V30 3899 O 380.544 -2.25528 -1.13549 0
M  V30 3900 C 381.857 -2.15337 2.09882 0
M  V30 3901 C 383.405 -2.28683 2.13712 0
M  V30 3902 C 383.88 -3.17917 3.29686 0
M  V30 3903 N 385.371 -3.25504 3.29547 0
M  V30 3904 C 386.106 -3.94706 4.15926 0
M  V30 3905 N 385.602 -4.66239 5.12439 0
M  V30 3906 N 387.395 -3.90986 4.0384 0
M  V30 3907 H 379.546 -0.583359 2.04232 0
M  V30 3908 H 381.809 -0.319921 0.892387 0
M  V30 3909 H 381.515 -1.72682 3.06389 0
M  V30 3910 H 381.389 -3.16015 2.05947 0
M  V30 3911 H 383.776 -2.70575 1.17784 0
M  V30 3912 H 383.857 -1.27596 2.21705 0
M  V30 3913 H 383.501 -2.76736 4.25887 0
M  V30 3914 H 383.431 -4.19036 3.1893 0
M  V30 3915 H 385.922 -2.74547 2.59677 0
M  V30 3916 H 386.235 -5.16638 5.74722 0
M  V30 3917 H 384.58 -4.65143 5.16398 0
M  V30 3918 H 387.771 -3.34234 3.27727 0
M  V30 3919 H 387.944 -4.44646 4.71375 0
M  V30 3920 N 381.35 -0.985608 -1.22978 0
M  V30 3921 C 382.627 -0.573599 -1.87001 0
M  V30 3922 C 383.007 0.949213 -1.88555 0
M  V30 3923 O 382.355 1.82811 -1.37086 0
M  V30 3924 C 382.565 -1.18564 -3.28243 0
M  V30 3925 C 383.913 -1.28163 -4.04796 0
M  V30 3926 O 384.937 -1.13949 -3.37482 0
M  V30 3927 O 383.796 -1.50832 -5.25273 0
M  V30 3928 H 380.89 -0.193868 -0.803955 0
M  V30 3929 H 383.436 -1.08102 -1.30813 0
M  V30 3930 H 382.208 -2.22758 -3.21706 0
M  V30 3931 H 381.831 -0.663363 -3.92027 0
M  V30 3932 N 382.828 1.3818 -0.7579 0
M  V30 3933 C 384.056 2.04301 -0.326937 0
M  V30 3934 C 384.471 1.57163 1.0462 0
M  V30 3935 O 383.828 0.746626 1.66529 0
M  V30 3936 C 383.879 3.59846 -0.345363 0
M  V30 3937 O 383.6 4.05256 -1.66432 0
M  V30 3938 C 385.101 4.4319 0.098927 0
M  V30 3939 H 382.321 0.656443 -0.139012 0
M  V30 3940 H 384.865 1.76786 -1.02796 0
M  V30 3941 H 383.02 3.86182 0.306955 0
M  V30 3942 H 383.434 4.99709 -1.59345 0
M  V30 3943 H 384.908 5.51989 0.0348745 0
M  V30 3944 H 385.385 4.23947 1.14741 0
M  V30 3945 H 385.991 4.22051 -0.52468 0
M  V30 3946 N 384.306 0.507319 1.49211 0
M  V30 3947 C 385.269 -0.256763 2.27757 0
M  V30 3948 C 386.269 -0.888287 1.34038 0
M  V30 3949 O 387.459 -0.751841 1.5714 0
M  V30 3950 C 384.591 -1.36905 3.12202 0
M  V30 3951 H 385.784 0.432557 2.96764 0
M  V30 3952 H 383.337 0.262488 1.5408 0
M  V30 3953 H 384.072 -2.09233 2.47775 0
M  V30 3954 H 383.857 -0.921599 3.81115 0
M  V30 3955 H 385.347 -1.9071 3.7151 0
M  V30 3956 N 385.784 -1.5574 0.241426 0
M  V30 3957 C 387.009 -2.0366 -0.392111 0
M  V30 3958 C 387.434 -1.11969 -1.51144 0
M  V30 3959 O 386.792 -0.111594 -1.80956 0
M  V30 3960 C 386.84 -3.49638 -0.882371 0
M  V30 3961 O 385.944 -3.6108 -1.99235 0
M  V30 3962 H 385.285 -0.658379 -0.0862122 0
M  V30 3963 H 387.815 -2.01302 0.365881 0
M  V30 3964 H 387.825 -3.90351 -1.18702 0
M  V30 3965 H 386.5 -4.15852 -0.0632361 0
M  V30 3966 H 385.077 -3.32262 -1.69282 0
M  V30 3967 N 387.262 0.0317525 -1.57568 0
M  V30 3968 C 388.192 1.03274 -2.0942 0
M  V30 3969 C 389.173 1.3788 -0.996143 0
M  V30 3970 O 390.358 1.46811 -1.27122 0
M  V30 3971 C 387.488 2.33448 -2.57137 0
M  V30 3972 C 386.442 2.13091 -3.71182 0
M  V30 3973 C 385.768 3.49001 -4.05095 0
M  V30 3974 C 387.068 1.51928 -4.99715 0
M  V30 3975 H 388.762 0.60112 -2.93303 0
M  V30 3976 H 386.308 0.287705 -1.41097 0
M  V30 3977 H 388.261 3.03802 -2.92032 0
M  V30 3978 H 386.985 2.78665 -1.70333 0
M  V30 3979 H 385.644 1.45171 -3.36632 0
M  V30 3980 H 385.292 3.91862 -3.15362 0
M  V30 3981 H 384.992 3.36207 -4.81911 0
M  V30 3982 H 386.516 4.20721 -4.42522 0
M  V30 3983 H 387.93 2.12196 -5.32584 0
M  V30 3984 H 386.327 1.49716 -5.81124 0
M  V30 3985 H 387.397 0.484811 -4.8247 0
M  V30 3986 N 388.74 1.54641 0.303973 0
M  V30 3987 C 389.965 1.78092 1.06292 0
M  V30 3988 C 390.39 0.537342 1.80262 0
M  V30 3989 O 389.748 -0.511993 1.7392 0
M  V30 3990 C 389.796 2.98612 2.02147 0
M  V30 3991 O 388.9 2.71528 3.10397 0
M  V30 3992 H 388.241 0.589548 0.305497 0
M  V30 3993 H 390.771 2.01716 0.3423 0
M  V30 3994 H 390.781 3.265 2.44667 0
M  V30 3995 H 389.456 3.88785 1.47714 0
M  V30 3996 H 388.033 2.54648 2.72413 0
M  V30 3997 N 390.218 -0.567019 1.47046 0
M  V30 3998 C 391.446 -1.35027 1.56765 0
M  V30 3999 C 391.861 -1.8758 0.214316 0
M  V30 4000 O 391.218 -1.64471 -0.790919 0
M  V30 4001 C 391.269 -2.52698 2.58507 0
M  V30 4002 O 390.99 -2.0232 3.88585 0
M  V30 4003 C 392.491 -3.45043 2.78316 0
M  V30 4004 H 389.711 -0.41195 0.529658 0
M  V30 4005 H 392.255 -0.687832 1.92585 0
M  V30 4006 H 390.41 -3.149 2.25648 0
M  V30 4007 H 390.824 -2.79068 4.44096 0
M  V30 4008 H 392.298 -4.2405 3.53391 0
M  V30 4009 H 392.775 -3.97971 1.85784 0
M  V30 4010 H 393.381 -2.88665 3.12334 0
M  V30 4011 N 391.696 -1.35014 -0.812953 0
M  V30 4012 C 392.924 -1.31031 -1.6012 0
M  V30 4013 C 393.339 0.113558 -1.88458 0
M  V30 4014 O 392.696 1.06363 -1.48301 0
M  V30 4015 C 392.747 -2.10872 -2.93624 0
M  V30 4016 O 392.468 -3.47706 -2.66518 0
M  V30 4017 C 393.969 -2.14401 -3.88004 0
M  V30 4018 H 391.189 -0.45037 -0.497401 0
M  V30 4019 H 393.733 -1.77775 -1.01076 0
M  V30 4020 H 391.888 -1.67744 -3.492 0
M  V30 4021 H 392.302 -3.89097 -3.51715 0
M  V30 4022 H 393.776 -2.74669 -4.78812 0
M  V30 4023 H 394.253 -1.14105 -4.24119 0
M  V30 4024 H 394.859 -2.57662 -3.38364 0
M  V30 4025 N 393.175 1.03435 -1.18907 0
M  V30 4026 C 394.586 1.58195 -0.991523 0
M  V30 4027 C 394.937 1.90801 0.457081 0
M  V30 4028 O 394.062 1.70272 1.33553 0
M  V30 4029 C 394.657 2.87432 -1.79355 0
M  V30 4030 C 393.216 3.38785 -1.64017 0
M  V30 4031 C 392.363 2.12292 -1.78402 0
M  V30 4032 H 395.314 0.860299 -1.33359 0
M  V30 4033 H 395.335 3.58096 -1.28638 0
M  V30 4034 H 394.847 2.63669 -2.84781 0
M  V30 4035 H 392.948 3.67547 -0.611536 0
M  V30 4036 H 393.061 4.12186 -2.44212 0
M  V30 4037 H 391.425 2.23901 -1.2141 0
M  V30 4038 H 392.208 1.90977 -2.85277 0
M  V30 4039 N 394.653 0.992116 1.22453 0
M  V30 4040 C 395.878 0.685644 1.95739 0
M  V30 4041 C 396.303 -0.743 1.72804 0
M  V30 4042 O 395.661 -1.50778 1.00676 0
M  V30 4043 C 395.709 0.996293 3.46564 0
M  V30 4044 O 394.813 0.0945512 4.12292 0
M  V30 4045 H 394.154 0.256694 0.612376 0
M  V30 4046 H 396.684 1.32888 1.5557 0
M  V30 4047 H 396.694 0.93781 3.97076 0
M  V30 4048 H 395.369 2.03733 3.62582 0
M  V30 4049 H 393.946 0.208451 3.72317 0
M  V30 4050 N 396.131 -1.37776 0.765217 0
M  V30 4051 C 397.041 -2.34135 0.147666 0
M  V30 4052 C 398.057 -1.59854 -0.687215 0
M  V30 4053 O 399.233 -1.91983 -0.608659 0
M  V30 4054 C 396.298 -3.3901 -0.72617 0
M  V30 4055 C 395.359 -4.2912 0.124417 0
M  V30 4056 C 394.592 -5.28986 -0.707807 0
M  V30 4057 O 394.815 -5.36205 -1.94525 0
M  V30 4058 O 393.749 -6.01779 -0.12046 0
M  V30 4059 H 397.575 -2.88664 0.943758 0
M  V30 4060 H 395.16 -1.39824 0.526277 0
M  V30 4061 H 397.042 -4.03195 -1.22524 0
M  V30 4062 H 395.717 -2.86819 -1.50056 0
M  V30 4063 H 394.624 -3.68057 0.669696 0
M  V30 4064 H 395.957 -4.84598 0.861736 0
M  V30 4065 N 397.609 -0.515225 -1.4894 0
M  V30 4066 C 398.834 0.022727 -2.07388 0
M  V30 4067 C 399.259 1.2876 -1.37122 0
M  V30 4068 O 398.617 1.76067 -0.432431 0
M  V30 4069 C 398.665 0.244869 -3.59768 0
M  V30 4070 O 397.769 1.31667 -3.90817 0
M  V30 4071 H 397.11 -0.0325506 -0.663202 0
M  V30 4072 H 399.64 -0.718918 -1.91553 0
M  V30 4073 H 399.65 0.47205 -4.0526 0
M  V30 4074 H 398.325 -0.679194 -4.10317 0
M  V30 4075 H 396.902 1.07331 -3.5712 0
M  V30 4076 N 399.087 1.5561 -0.249682 0
M  V30 4077 C 400.498 1.84979 0.252949 0
M  V30 4078 C 400.849 1.17153 1.57384 0
M  V30 4079 O 399.974 0.450884 2.11651 0
M  V30 4080 C 400.569 3.35584 0.465732 0
M  V30 4081 C 399.128 3.65169 0.912624 0
M  V30 4082 C 398.275 2.77299 -0.00859085 0
M  V30 4083 H 401.226 1.51513 -0.47217 0
M  V30 4084 H 401.247 3.57313 1.30795 0
M  V30 4085 H 400.759 3.8492 -0.49579 0
M  V30 4086 H 398.86 3.21312 1.88652 0
M  V30 4087 H 398.973 4.72912 0.767559 0
M  V30 4088 H 397.337 2.49678 0.50327 0
M  V30 4089 H 398.12 3.29442 -0.965537 0
M  V30 4090 N 400.565 -0.0233959 1.57583 0
M  V30 4091 C 401.981 -0.379134 1.55031 0
M  V30 4092 C 402.181 -1.76255 0.976548 0
M  V30 4093 O 401.237 -2.45266 0.600078 0
M  V30 4094 C 402.55 -0.275792 2.99433 0
M  V30 4095 C 404.098 -0.352458 3.11009 0
M  V30 4096 C 404.573 -0.278501 4.57152 0
M  V30 4097 N 406.064 -0.337123 4.61972 0
M  V30 4098 C 406.799 -0.302876 5.726 0
M  V30 4099 N 406.295 -0.220589 6.92449 0
M  V30 4100 N 408.088 -0.353023 5.6099 0
M  V30 4101 H 400.239 0.881869 1.93227 0
M  V30 4102 H 402.502 0.335867 0.886509 0
M  V30 4103 H 402.208 0.675108 3.4516 0
M  V30 4104 H 402.082 -1.06721 3.61788 0
M  V30 4105 H 404.469 -1.29379 2.65226 0
M  V30 4106 H 404.55 0.468409 2.51475 0
M  V30 4107 H 404.194 0.659189 5.03604 0
M  V30 4108 H 404.124 -1.11755 5.14605 0
M  V30 4109 H 406.615 -0.403002 3.75745 0
M  V30 4110 H 406.928 -0.199713 7.72542 0
M  V30 4111 H 405.273 -0.186555 6.9475 0
M  V30 4112 H 408.464 -0.415339 4.66254 0
M  V30 4113 H 408.637 -0.322866 6.47195 0
M  V30 4114 N 402.043 -1.548 -0.295768 0
M  V30 4115 C 403.006 -1.85363 -1.34808 0
M  V30 4116 C 404.006 -0.726817 -1.43436 0
M  V30 4117 O 405.196 -0.995088 -1.42981 0
M  V30 4118 C 402.328 -2.03859 -2.73229 0
M  V30 4119 H 403.521 -2.7941 -1.08949 0
M  V30 4120 H 401.074 -1.46942 -0.532702 0
M  V30 4121 H 401.809 -1.12117 -3.04303 0
M  V30 4122 H 401.594 -2.8588 -2.68356 0
M  V30 4123 H 403.084 -2.28857 -3.49305 0
M  V30 4124 N 403.521 0.559213 -1.47345 0
M  V30 4125 C 404.453 1.68161 -1.55738 0
M  V30 4126 C 405.466 1.56636 -0.443744 0
M  V30 4127 O 406.655 1.6363 -0.713258 0
M  V30 4128 C 403.755 3.06611 -1.4437 0
M  V30 4129 C 402.928 3.4391 -2.70268 0
M  V30 4130 C 401.987 4.61515 -2.52765 0
M  V30 4131 O 401.013 4.66197 -3.26572 0
M  V30 4132 N 402.215 5.57883 -1.6046 0
M  V30 4133 H 404.98 1.61408 -2.52522 0
M  V30 4134 H 402.541 0.7458 -1.43699 0
M  V30 4135 H 404.533 3.83117 -1.30398 0
M  V30 4136 H 403.103 3.07602 -0.556766 0
M  V30 4137 H 402.323 2.56873 -2.99015 0
M  V30 4138 H 403.611 3.65605 -3.53851 0
M  V30 4139 H 403.009 5.56855 -0.996422 0
M  V30 4140 H 401.566 6.33723 -1.52441 0
M  V30 4141 N 404.999 1.35443 0.805782 0
M  V30 4142 C 405.962 1.28301 1.89925 0
M  V30 4143 C 406.962 0.194285 1.59622 0
M  V30 4144 O 408.152 0.448036 1.6834 0
M  V30 4145 C 405.284 0.984997 3.2636 0
M  V30 4146 H 406.477 2.2553 1.97677 0
M  V30 4147 H 404.03 1.19979 1.00173 0
M  V30 4148 H 404.765 0.016603 3.24296 0
M  V30 4149 H 404.55 1.77269 3.4974 0
M  V30 4150 H 406.04 0.960651 4.064 0
M  V30 4151 N 406.477 -1.02803 1.19454 0
M  V30 4152 C 407.705 -1.79841 1.02297 0
M  V30 4153 C 408.12 -1.83879 -0.428259 0
M  V30 4154 O 407.477 -1.28345 -1.29745 0
M  V30 4155 C 407.528 -3.24852 1.58598 0
M  V30 4156 O 407.249 -3.21097 2.98041 0
M  V30 4157 C 408.75 -4.18485 1.46236 0
M  V30 4158 H 405.97 -0.565936 0.360496 0
M  V30 4159 H 408.514 -1.2948 1.58288 0
M  V30 4160 H 406.669 -3.72401 1.06753 0
M  V30 4161 H 407.083 -4.12033 3.24545 0
M  V30 4162 H 408.557 -5.18121 1.90407 0
M  V30 4163 H 409.034 -4.37254 0.41301 0
M  V30 4164 H 409.64 -3.76811 1.97215 0
M  V30 4165 N 407.956 -0.998596 -1.21925 0
M  V30 4166 C 409.181 -0.696015 -1.95372 0
M  V30 4167 C 409.606 0.733826 -1.73195 0
M  V30 4168 O 408.964 1.50242 -1.01474 0
M  V30 4169 C 409.012 -1.01466 -3.4603 0
M  V30 4170 O 408.116 -0.116415 -4.12236 0
M  V30 4171 H 407.457 -0.259938 -0.611006 0
M  V30 4172 H 409.987 -1.33711 -1.54863 0
M  V30 4173 H 409.997 -0.958855 -3.96573 0
M  V30 4174 H 408.672 -2.05653 -3.61497 0
M  V30 4175 H 407.249 -0.228193 -3.72201 0
M  V30 4176 N 409.434 1.37368 -0.772513 0
M  V30 4177 C 410.85 1.53059 -0.452231 0
M  V30 4178 C 411.05 1.73065 1.03203 0
M  V30 4179 O 410.106 1.75245 1.81784 0
M  V30 4180 C 411.419 2.72659 -1.26797 0
M  V30 4181 C 412.967 2.86521 -1.25995 0
M  V30 4182 C 413.442 4.09105 -2.05905 0
M  V30 4183 N 414.933 4.16219 -2.03263 0
M  V30 4184 C 415.668 5.10107 -2.61875 0
M  V30 4185 N 415.164 6.09547 -3.29278 0
M  V30 4186 N 416.957 5.02596 -2.51701 0
M  V30 4187 H 409.108 1.22634 -1.7342 0
M  V30 4188 H 411.371 0.597206 -0.736239 0
M  V30 4189 H 411.077 2.64343 -2.31982 0
M  V30 4190 H 410.951 3.66363 -0.897672 0
M  V30 4191 H 413.338 2.94308 -0.216081 0
M  V30 4192 H 413.419 1.93774 -1.66989 0
M  V30 4193 H 413.063 4.0208 -3.10313 0
M  V30 4194 H 412.993 5.00968 -1.62292 0
M  V30 4195 H 415.484 3.45012 -1.54192 0
M  V30 4196 H 415.797 6.77718 -3.71374 0
M  V30 4197 H 414.142 6.09824 -3.33377 0
M  V30 4198 H 417.333 4.23855 -1.98657 0
M  V30 4199 H 417.506 5.75582 -2.97673 0
M  V30 4200 N 410.912 0.523116 1.48665 0
M  V30 4201 C 411.842 -0.23231 2.32342 0
M  V30 4202 C 412.823 -0.941637 1.41659 0
M  V30 4203 O 414.008 -0.928751 1.70552 0
M  V30 4204 C 411.138 -1.28387 3.22698 0
M  V30 4205 C 410.092 -0.693098 4.22351 0
M  V30 4206 C 409.418 -1.8468 5.01794 0
M  V30 4207 C 410.718 0.33063 5.21252 0
M  V30 4208 H 412.412 0.466192 2.95748 0
M  V30 4209 H 409.958 0.225643 1.42221 0
M  V30 4210 H 411.911 -1.82024 3.80059 0
M  V30 4211 H 410.635 -2.01186 2.57278 0
M  V30 4212 H 409.294 -0.178299 3.66166 0
M  V30 4213 H 408.942 -2.56301 4.32804 0
M  V30 4214 H 408.642 -1.45747 5.69238 0
M  V30 4215 H 410.166 -2.38709 5.62006 0
M  V30 4216 H 411.58 -0.118407 5.73178 0
M  V30 4217 H 409.977 0.636974 5.9671 0
M  V30 4218 H 411.047 1.23883 4.68808 0
M  V30 4219 N 412.39 -1.55475 0.257931 0
M  V30 4220 C 413.615 -2.04064 -0.370488 0
M  V30 4221 C 414.04 -1.13565 -1.49948 0
M  V30 4222 O 413.398 -0.130781 -1.80828 0
M  V30 4223 C 413.446 -3.50554 -0.845237 0
M  V30 4224 O 412.55 -3.63173 -1.95394 0
M  V30 4225 H 411.891 -0.659257 -0.0792243 0
M  V30 4226 H 414.421 -2.00903 0.387212 0
M  V30 4227 H 414.431 -3.91588 -1.14555 0
M  V30 4228 H 413.106 -4.15896 -0.0191259 0
M  V30 4229 H 411.683 -3.34039 -1.65748 0
M  V30 4230 N 413.868 0.0150385 -1.57593 0
M  V30 4231 C 415.096 0.714395 -1.94175 0
M  V30 4232 C 415.511 1.68135 -0.858841 0
M  V30 4233 O 414.868 1.81766 0.163567 0
M  V30 4234 C 414.919 1.45933 -3.30735 0
M  V30 4235 O 414.64 0.531167 -4.34868 0
M  V30 4236 C 416.141 2.25456 -3.81686 0
M  V30 4237 H 413.361 0.199923 -0.640525 0
M  V30 4238 H 415.905 -0.0316096 -2.04476 0
M  V30 4239 H 414.06 2.15709 -3.21789 0
M  V30 4240 H 414.474 1.05509 -5.13778 0
M  V30 4241 H 415.948 2.731 -4.79709 0
M  V30 4242 H 416.425 3.07485 -3.13607 0
M  V30 4243 H 417.031 1.60727 -3.9376 0
M  V30 4244 N 415.346 1.54954 0.287554 0
M  V30 4245 C 416.309 1.86076 1.33823 0
M  V30 4246 C 417.309 0.734414 1.43049 0
M  V30 4247 O 418.499 1.00266 1.42452 0
M  V30 4248 C 415.631 2.05305 2.72144 0
M  V30 4249 H 416.824 2.79984 1.07465 0
M  V30 4250 H 414.377 1.47223 0.524902 0
M  V30 4251 H 415.112 1.1373 3.03704 0
M  V30 4252 H 414.897 2.873 2.66836 0
M  V30 4253 H 416.387 2.30706 3.48087 0
M  V30 4254 N 416.824 -0.551391 1.4764 0
M  V30 4255 C 418.049 -1.33837 1.58437 0
M  V30 4256 C 418.474 -1.866 0.237063 0
M  V30 4257 O 417.832 -1.6328 -0.787994 0
M  V30 4258 C 417.88 -2.48014 2.61766 0
M  V30 4259 O 416.984 -3.50419 2.1744 0
M  V30 4260 H 416.325 -0.397299 0.532024 0
M  V30 4261 H 418.855 -0.665759 1.93465 0
M  V30 4262 H 418.865 -2.94503 2.82369 0
M  V30 4263 H 417.54 -2.08969 3.5959 0
M  V30 4264 H 416.117 -3.10196 2.06961 0
M  V30 4265 N 418.302 -1.35869 -0.798587 0
M  V30 4266 C 419.542 -1.30961 -1.56935 0
M  V30 4267 C 419.906 0.112404 -1.91671 0
M  V30 4268 O 421.107 0.285937 -2.67275 0
M  V30 4269 C 419.378 -2.19811 -2.81811 0
M  V30 4270 S 420.937 -2.32498 -3.72143 0
M  V30 4271 H 417.755 -0.465297 -0.537606 0
M  V30 4272 H 420.357 -1.71344 -0.941346 0
M  V30 4273 H 419.061 -3.22095 -2.54329 0
M  V30 4274 H 418.592 -1.80415 -3.49591 0
M  V30 4275 H 420.607 -1.5157 -4.72484 0
M  V30 4276 N 419.78 1.02168 -1.19998 0
M  V30 4277 C 421.191 1.57135 -1.00825 0
M  V30 4278 C 421.542 1.91276 0.436818 0
M  V30 4279 O 420.667 1.71679 1.3174 0
M  V30 4280 C 421.262 2.85514 -1.82393 0
M  V30 4281 C 419.821 3.37027 -1.67601 0
M  V30 4282 C 418.968 2.10388 -1.80644 0
M  V30 4283 H 421.919 0.846106 -1.34264 0
M  V30 4284 H 421.94 3.56711 -1.32429 0
M  V30 4285 H 421.452 2.60634 -2.87561 0
M  V30 4286 H 419.553 3.66878 -0.650485 0
M  V30 4287 H 419.666 4.09572 -2.4857 0
M  V30 4288 H 418.03 2.22601 -1.23778 0
M  V30 4289 H 418.813 1.8794 -2.87286 0
M  V30 4290 N 421.258 1.00505 1.21394 0
M  V30 4291 C 422.486 0.706609 1.9446 0
M  V30 4292 C 422.901 -0.73081 1.74082 0
M  V30 4293 O 422.258 -1.49446 1.04747 0
M  V30 4294 C 422.309 1.01824 3.46863 0
M  V30 4295 O 422.03 2.39919 3.66566 0
M  V30 4296 C 423.531 0.739216 4.37093 0
M  V30 4297 H 420.751 0.260394 0.618414 0
M  V30 4298 H 423.295 1.34311 1.54211 0
M  V30 4299 H 421.45 0.427343 3.85036 0
M  V30 4300 H 421.864 2.50784 4.6066 0
M  V30 4301 H 423.338 1.00744 5.42729 0
M  V30 4302 H 423.815 -0.326746 4.37983 0
M  V30 4303 H 424.421 1.31173 4.04566 0
M  V30 4304 N 422.737 -1.36956 0.779787 0
M  V30 4305 C 424.148 -1.82094 0.412156 0
M  V30 4306 C 424.499 -1.64926 -1.06273 0
M  V30 4307 O 423.624 -1.16483 -1.82375 0
M  V30 4308 C 424.219 -3.3059 0.741319 0
M  V30 4309 C 422.778 -3.73974 0.426641 0
M  V30 4310 C 421.925 -2.59368 0.980987 0
M  V30 4311 H 424.876 -1.25314 0.973758 0
M  V30 4312 H 424.897 -3.80489 0.028887 0
M  V30 4313 H 424.409 -3.43054 1.81482 0
M  V30 4314 H 422.51 -3.67076 -0.639215 0
M  V30 4315 H 422.623 -4.69778 0.940515 0
M  V30 4316 H 420.987 -2.51463 0.404757 0
M  V30 4317 H 421.77 -2.74621 2.06005 0
M  V30 4318 N 424.215 -0.530993 -1.48385 0
M  V30 4319 C 425.162 0.231223 -2.29639 0
M  V30 4320 C 426.132 0.932864 -1.37429 0
M  V30 4321 O 427.317 0.933692 -1.66394 0
M  V30 4322 C 424.457 1.27155 -3.2082 0
M  V30 4323 C 423.57 0.578655 -4.28107 0
M  V30 4324 C 422.705 1.602 -5.06467 0
M  V30 4325 C 421.744 0.892625 -6.05556 0
M  V30 4326 N 420.881 1.86157 -6.76971 0
M  V30 4327 H 425.721 -0.467848 -2.94305 0
M  V30 4328 H 423.258 -0.242556 -1.45086 0
M  V30 4329 H 425.216 1.88703 -3.72085 0
M  V30 4330 H 423.846 1.939 -2.58075 0
M  V30 4331 H 422.898 -0.150782 -3.80101 0
M  V30 4332 H 424.21 0.0217065 -4.98795 0
M  V30 4333 H 423.364 2.29173 -5.61751 0
M  V30 4334 H 422.103 2.19285 -4.35621 0
M  V30 4335 H 421.108 0.188829 -5.49476 0
M  V30 4336 H 422.333 0.307878 -6.78402 0
M  V30 4337 H 420.279 2.44147 -6.08875 0
M  V30 4338 H 420.196 1.35608 -7.43738 0
M  V30 4339 H 421.464 2.54325 -7.36844 0
M  V30 4340 N 425.693 1.55336 -0.266172 0
M  V30 4341 C 426.939 1.99692 0.353681 0
M  V30 4342 C 427.272 1.1543 1.56172 0
M  V30 4343 O 426.547 0.222218 1.93226 0
M  V30 4344 C 426.83 3.52316 0.74466 0
M  V30 4345 C 426.683 4.47337 -0.470101 0
M  V30 4346 C 428.002 4.10588 1.58447 0
M  V30 4347 H 425.121 0.725961 0.12708 0
M  V30 4348 H 427.763 1.86336 -0.371333 0
M  V30 4349 H 425.913 3.63829 1.36239 0
M  V30 4350 H 427.585 4.4778 -1.10864 0
M  V30 4351 H 425.828 4.19364 -1.10978 0
M  V30 4352 H 426.499 5.51788 -0.15291 0
M  V30 4353 H 428.975 4.02297 1.06286 0
M  V30 4354 H 427.851 5.17607 1.82686 0
M  V30 4355 H 428.112 3.60253 2.56262 0
M  V30 4356 N 427.171 -0.0066808 1.57599 0
M  V30 4357 C 428.103 -1.02827 2.04839 0
M  V30 4358 C 429.116 -1.31108 0.965113 0
M  V30 4359 O 430.305 -1.28202 1.24203 0
M  V30 4360 C 427.405 -2.36464 2.42771 0
M  V30 4361 C 426.578 -2.27219 3.73751 0
M  V30 4362 C 425.637 -3.43489 3.98625 0
M  V30 4363 O 424.663 -3.21976 4.69382 0
M  V30 4364 N 425.865 -4.66116 3.46 0
M  V30 4365 H 428.63 -0.625455 2.93101 0
M  V30 4366 H 426.191 -0.194198 1.60731 0
M  V30 4367 H 428.183 -3.13008 2.56531 0
M  V30 4368 H 426.753 -2.68512 1.60063 0
M  V30 4369 H 425.973 -1.35629 3.70133 0
M  V30 4370 H 427.261 -2.18208 4.59633 0
M  V30 4371 H 426.659 -4.86493 2.88688 0
M  V30 4372 H 425.216 -5.39949 3.65101 0
M  V30 4373 N 428.649 -1.55105 -0.279332 0
M  V30 4374 C 429.874 -1.7976 -1.03446 0
M  V30 4375 C 430.299 -0.565952 -1.79384 0
M  V30 4376 O 429.657 0.484259 -1.74713 0
M  V30 4377 C 429.705 -3.0179 -1.97371 0
M  V30 4378 O 428.809 -2.76432 -3.06038 0
M  V30 4379 H 428.15 -0.594334 -0.29608 0
M  V30 4380 H 430.68 -2.02235 -0.310165 0
M  V30 4381 H 430.69 -3.30351 -2.39441 0
M  V30 4382 H 429.365 -3.91085 -1.4151 0
M  V30 4383 H 427.942 -2.58949 -2.68328 0
M  V30 4384 N 430.127 0.543554 -1.4793 0
M  V30 4385 C 431.543 0.870806 -1.3375 0
M  V30 4386 C 431.743 1.9864 -0.338261 0
M  V30 4387 O 430.799 2.51305 0.245371 0
M  V30 4388 C 432.112 1.25114 -2.73435 0
M  V30 4389 C 433.66 1.3618 -2.81823 0
M  V30 4390 C 434.135 1.77563 -4.22179 0
M  V30 4391 N 435.626 1.8469 -4.24787 0
M  V30 4392 C 436.361 2.18067 -5.30315 0
M  V30 4393 N 435.857 2.49963 -6.46135 0
M  V30 4394 N 437.65 2.18958 -5.17701 0
M  V30 4395 H 429.801 -0.19275 -2.11524 0
M  V30 4396 H 432.064 -0.0235777 -0.947707 0
M  V30 4397 H 431.77 0.50514 -3.48053 0
M  V30 4398 H 431.644 2.20431 -3.06088 0
M  V30 4399 H 434.031 2.09859 -2.07468 0
M  V30 4400 H 434.112 0.390169 -2.52807 0
M  V30 4401 H 433.756 1.04449 -4.97044 0
M  V30 4402 H 433.686 2.75753 -4.48629 0
M  V30 4403 H 436.177 1.62372 -3.41239 0
M  V30 4404 H 436.49 2.74497 -7.22406 0
M  V30 4405 H 434.835 2.47513 -6.49432 0
M  V30 4406 H 438.026 1.93488 -4.2624 0
M  V30 4407 H 438.199 2.44639 -6.00047 0
M  V30 4408 N 431.605 1.3629 0.791371 0
M  V30 4409 C 432.845 1.31792 1.56238 0
M  V30 4410 C 433.209 -0.102237 1.91728 0
M  V30 4411 O 434.41 -0.271759 2.67423 0
M  V30 4412 C 432.681 2.21303 2.80642 0
M  V30 4413 S 434.24 2.34468 3.70904 0
M  V30 4414 H 431.058 0.468141 0.535131 0
M  V30 4415 H 433.66 1.71841 0.932246 0
M  V30 4416 H 432.364 3.23439 2.52617 0
M  V30 4417 H 431.895 1.82266 3.4863 0
M  V30 4418 H 433.91 1.54074 4.71673 0
M  V30 4419 N 433.083 -1.0153 1.20538 0
M  V30 4420 C 434.308 -1.79283 1.04271 0
M  V30 4421 C 434.733 -1.8372 -0.403544 0
M  V30 4422 O 434.091 -1.27321 -1.2907 0
M  V30 4423 C 434.139 -3.21535 1.63241 0
M  V30 4424 O 433.243 -4.03099 0.870908 0
M  V30 4425 H 432.584 -0.55293 0.367647 0
M  V30 4426 H 435.114 -1.27696 1.59859 0
M  V30 4427 H 435.124 -3.72243 1.6703 0
M  V30 4428 H 433.799 -3.1762 2.68497 0
M  V30 4429 H 432.376 -3.61693 0.907323 0
M  V30 4430 N 434.561 -1.01147 -1.20859 0
M  V30 4431 C 435.786 -0.716698 -1.94623 0
M  V30 4432 C 436.211 0.715415 -1.73964 0
M  V30 4433 O 435.569 1.49157 -1.03062 0
M  V30 4434 C 435.617 -1.0513 -3.44935 0
M  V30 4435 O 434.721 -0.160131 -4.12089 0
M  V30 4436 H 434.062 -0.266404 -0.608214 0
M  V30 4437 H 436.592 -1.35346 -1.53436 0
M  V30 4438 H 436.602 -1.00086 -3.95533 0
M  V30 4439 H 435.277 -2.09475 -3.59295 0
M  V30 4440 H 433.854 -0.267657 -3.71938 0
M  V30 4441 N 436.039 1.36541 -0.78704 0
M  V30 4442 C 436.986 2.30082 -0.181901 0
M  V30 4443 C 437.956 1.5186 0.672896 0
M  V30 4444 O 439.141 1.80374 0.622072 0
M  V30 4445 C 436.281 3.3835 0.679197 0
M  V30 4446 C 435.394 4.31565 -0.193882 0
M  V30 4447 C 434.529 5.26915 0.673364 0
M  V30 4448 C 433.568 6.11769 -0.201315 0
M  V30 4449 N 432.705 6.99315 0.624777 0
M  V30 4450 H 437.545 2.81248 -0.985064 0
M  V30 4451 H 435.082 1.38437 -0.497342 0
M  V30 4452 H 437.04 3.99767 1.19341 0
M  V30 4453 H 435.67 2.8851 1.44781 0
M  V30 4454 H 434.722 3.71323 -0.826044 0
M  V30 4455 H 436.034 4.91191 -0.867937 0
M  V30 4456 H 435.188 5.9361 1.25348 0
M  V30 4457 H 433.927 4.67737 1.38105 0
M  V30 4458 H 432.932 5.44039 -0.793849 0
M  V30 4459 H 434.157 6.73022 -0.906568 0
M  V30 4460 H 432.103 6.42648 1.3168 0
M  V30 4461 H 432.02 7.56 0.00835237 0
M  V30 4462 H 433.288 7.70382 1.18879 0
M  V30 4463 N 437.518 0.538854 1.48102 0
M  V30 4464 C 438.428 -0.222648 2.33541 0
M  V30 4465 C 439.444 -0.930225 1.47047 0
M  V30 4466 O 440.62 -0.903211 1.80011 0
M  V30 4467 C 437.685 -1.25064 3.23357 0
M  V30 4468 C 436.746 -0.552469 4.2573 0
M  V30 4469 C 435.979 -1.53149 5.11254 0
M  V30 4470 O 436.202 -2.76487 4.9891 0
M  V30 4471 O 435.136 -1.06602 5.92385 0
M  V30 4472 H 438.962 0.477707 2.99919 0
M  V30 4473 H 436.547 0.299669 1.46364 0
M  V30 4474 H 438.429 -1.8445 3.78888 0
M  V30 4475 H 437.104 -1.93325 2.59629 0
M  V30 4476 H 436.011 0.082114 3.7401 0
M  V30 4477 H 437.344 0.0883526 4.92121 0
M  V30 4478 N 438.996 -1.55193 0.274407 0
M  V30 4479 C 439.944 -2.23924 -0.629362 0
M  V30 4480 C 440.938 -1.23602 -1.1584 0
M  V30 4481 O 442.144 -1.41535 -1.11211 0
M  V30 4482 H 438.519 -0.718637 -0.221507 0
M  V30 4483 H 440.49 -2.98388 -0.0268322 0
M  V30 4484 C 439.239 -2.97329 -1.80252 0
M  V30 4485 H 438.562 -3.74313 -1.40462 0
M  V30 4486 H 440.002 -3.48743 -2.41152 0
M  V30 4487 C 438.461 -2.0276 -2.69054 0
M  V30 4488 O 438.991 -1.57836 -3.69392 0
M  V30 4489 N 437.197 -1.69275 -2.36208 0
M  V30 4490 H 436.744 -2.06004 -1.54661 0
M  V30 4491 H 436.702 -1.06271 -2.95895 0
M  V30 4492 N 440.474 -0.00167713 -1.576 0
M  V30 4493 C 441.723 0.682021 -1.89819 0
M  V30 4494 C 442.036 1.74844 -0.876871 0
M  V30 4495 O 443.242 2.48688 -1.08934 0
M  V30 4496 C 441.698 1.26425 -3.36964 0
M  V30 4497 C 441.306 0.232568 -4.47396 0
M  V30 4498 C 443.05 1.92604 -3.78291 0
M  V30 4499 C 440.957 0.824882 -5.85619 0
M  V30 4500 H 439.887 0.258499 -0.708304 0
M  V30 4501 H 442.538 -0.0624957 -1.83394 0
M  V30 4502 H 440.92 2.05949 -3.38232 0
M  V30 4503 H 442.094 -0.5382 -4.57646 0
M  V30 4504 H 440.409 -0.32888 -4.15099 0
M  V30 4505 H 443.006 2.37827 -4.78897 0
M  V30 4506 H 443.349 2.75732 -3.11894 0
M  V30 4507 H 443.882 1.19812 -3.79328 0
M  V30 4508 H 440.621 0.0323542 -6.55492 0
M  V30 4509 H 440.141 1.56477 -5.79029 0
M  V30 4510 H 441.82 1.32301 -6.33329 0
M  V30 4511 N 441.952 1.55251 0.271103 0
M  V30 4512 C 442.882 1.9127 1.33933 0
M  V30 4513 C 443.863 0.77478 1.5143 0
M  V30 4514 O 445.048 1.03307 1.64442 0
M  V30 4515 C 442.178 2.18627 2.69851 0
M  V30 4516 C 441.132 3.34442 2.67081 0
M  V30 4517 C 440.458 3.47284 4.06569 0
M  V30 4518 C 441.758 4.70784 2.26185 0
M  V30 4519 H 443.452 2.80744 1.04035 0
M  V30 4520 H 440.998 1.35077 0.499017 0
M  V30 4521 H 442.951 2.42413 3.44694 0
M  V30 4522 H 441.675 1.25955 3.01335 0
M  V30 4523 H 440.334 3.10627 1.94695 0
M  V30 4524 H 439.982 2.52074 4.35279 0
M  V30 4525 H 439.682 4.25152 4.0561 0
M  V30 4526 H 441.206 3.73363 4.83148 0
M  V30 4527 H 442.62 4.94102 2.90751 0
M  V30 4528 H 441.017 5.51582 2.36384 0
M  V30 4529 H 442.087 4.69478 1.21319 0
M  V30 4530 N 443.43 -0.535701 1.48216 0
M  V30 4531 C 444.846 -0.863701 1.3421 0
M  V30 4532 C 445.046 -1.98458 0.34879 0
M  V30 4533 O 444.102 -2.51432 -0.23204 0
M  V30 4534 C 445.415 -1.23662 2.74095 0
M  V30 4535 C 446.963 -1.34683 2.82541 0
M  V30 4536 C 447.438 -1.75322 4.23115 0
M  V30 4537 N 448.929 -1.82434 4.2576 0
M  V30 4538 C 449.664 -2.15252 5.31464 0
M  V30 4539 N 449.16 -2.46533 6.47452 0
M  V30 4540 N 450.953 -2.16209 5.18855 0
M  V30 4541 H 443.104 0.203965 2.11418 0
M  V30 4542 H 445.367 0.0286033 0.947568 0
M  V30 4543 H 445.073 -0.486674 3.48316 0
M  V30 4544 H 444.947 -2.18805 3.07253 0
M  V30 4545 H 447.334 -2.08756 2.08579 0
M  V30 4546 H 447.415 -0.376756 2.5301 0
M  V30 4547 H 447.059 -1.01812 4.97591 0
M  V30 4548 H 446.989 -2.7337 4.50085 0
M  V30 4549 H 449.48 -1.6056 3.42095 0
M  V30 4550 H 449.793 -2.70662 7.23852 0
M  V30 4551 H 448.138 -2.44065 6.50736 0
M  V30 4552 H 451.329 -1.91224 4.2726 0
M  V30 4553 H 451.502 -2.41453 6.01335 0
M  V30 4554 N 444.908 -1.36708 -0.784132 0
M  V30 4555 C 445.871 -1.31307 -1.87859 0
M  V30 4556 C 446.871 -0.219654 -1.59293 0
M  V30 4557 O 448.061 -0.47476 -1.67606 0
M  V30 4558 C 445.193 -1.03679 -3.24751 0
M  V30 4559 H 446.386 -2.28647 -1.94064 0
M  V30 4560 H 443.939 -1.21558 -0.98252 0
M  V30 4561 H 444.674 -0.0681936 -3.24228 0
M  V30 4562 H 444.459 -1.82811 -3.46876 0
M  V30 4563 H 445.949 -1.02518 -4.04821 0
M  V30 4564 N 446.386 1.0089 -1.21074 0
M  V30 4565 C 447.611 1.78727 -1.05221 0
M  V30 4566 C 448.036 1.83932 0.393795 0
M  V30 4567 O 447.394 1.28004 1.28393 0
M  V30 4568 C 447.442 3.20665 -1.64944 0
M  V30 4569 O 446.546 4.02632 -0.892273 0
M  V30 4570 H 445.887 0.550973 -0.370574 0
M  V30 4571 H 448.417 1.26847 -1.60534 0
M  V30 4572 H 448.427 3.71352 -1.69002 0
M  V30 4573 H 447.102 3.16191 -2.70177 0
M  V30 4574 H 445.679 3.61207 -0.926492 0
M  V30 4575 N 447.864 1.01787 1.20321 0
M  V30 4576 C 448.814 0.559976 2.21016 0
M  V30 4577 C 449.798 -0.385366 1.56217 0
M  V30 4578 O 450.99 -0.208126 1.75772 0
M  V30 4579 C 448.119 -0.0990553 3.43157 0
M  V30 4580 C 447.205 0.86807 4.15121 0
M  V30 4581 N 447.596 2.0261 4.63447 0
M  V30 4582 C 445.894 0.689162 4.40643 0
M  V30 4583 C 446.595 2.63518 5.18588 0
M  V30 4584 N 445.571 1.91569 5.08726 0
M  V30 4585 H 449.373 1.44281 2.56048 0
M  V30 4586 H 446.887 0.883381 1.36272 0
M  V30 4587 H 448.884 -0.444643 4.14522 0
M  V30 4588 H 447.544 -0.977709 3.0963 0
M  V30 4589 H 448.555 2.40598 4.58621 0
M  V30 4590 H 445.232 -0.14133 4.17261 0
M  V30 4591 H 446.622 3.61527 5.66346 0
M  V30 4592 N 449.342 -1.36122 0.79427 0
M  V30 4593 C 450.567 -2.03891 0.379871 0
M  V30 4594 C 450.992 -1.59488 -0.997251 0
M  V30 4595 O 450.35 -0.765652 -1.64339 0
M  V30 4596 C 450.398 -3.57687 0.457442 0
M  V30 4597 O 449.502 -4.08931 -0.5338 0
M  V30 4598 H 448.843 -0.6443 0.160541 0
M  V30 4599 H 451.373 -1.73976 1.07673 0
M  V30 4600 H 451.383 -4.06721 0.322792 0
M  V30 4601 H 450.058 -3.89357 1.46199 0
M  V30 4602 H 448.635 -3.71154 -0.360409 0
M  V30 4603 N 450.82 -0.546701 -1.47814 0
M  V30 4604 C 451.783 0.196287 -2.28358 0
M  V30 4605 C 452.783 0.852437 -1.36346 0
M  V30 4606 O 453.973 0.709913 -1.59078 0
M  V30 4607 C 451.105 1.28579 -3.15722 0
M  V30 4608 H 452.298 -0.511086 -2.95513 0
M  V30 4609 H 449.851 -0.303248 -1.5333 0
M  V30 4610 H 450.586 2.0259 -2.53235 0
M  V30 4611 H 450.371 0.820229 -3.83425 0
M  V30 4612 H 451.861 1.80793 -3.76435 0
M  V30 4613 N 452.299 1.55045 -0.282633 0
M  V30 4614 C 453.545 2.00056 0.332481 0
M  V30 4615 C 453.878 1.1708 1.54939 0
M  V30 4616 O 453.153 0.2427 1.9298 0
M  V30 4617 C 453.436 3.53086 0.70725 0
M  V30 4618 C 453.289 4.46813 -0.517521 0
M  V30 4619 C 454.608 4.12245 1.54084 0
M  V30 4620 H 451.727 0.727268 0.119373 0
M  V30 4621 H 454.369 1.85932 -0.391076 0
M  V30 4622 H 452.519 3.65253 1.32372 0
M  V30 4623 H 454.191 4.46579 -1.15607 0
M  V30 4624 H 452.434 4.18163 -1.1542 0
M  V30 4625 H 453.105 5.51595 -0.211426 0
M  V30 4626 H 455.581 4.03401 1.02013 0
M  V30 4627 H 454.457 5.19515 1.77186 0
M  V30 4628 H 454.718 3.62951 2.52427 0
M  V30 4629 N 453.777 0.010035 1.57597 0
M  V30 4630 C 455.054 -0.710296 1.82248 0
M  V30 4631 C 455.434 -1.91426 0.889911 0
M  V30 4632 O 454.782 -2.28424 -0.0590292 0
M  V30 4633 C 454.992 -1.10655 3.30993 0
M  V30 4634 C 456.34 -1.50621 3.96987 0
M  V30 4635 O 457.364 -1.20007 3.35375 0
M  V30 4636 O 456.223 -2.07587 5.05539 0
M  V30 4637 H 453.317 -0.34673 0.750804 0
M  V30 4638 H 455.863 0.0362578 1.69661 0
M  V30 4639 H 454.635 -0.248826 3.90508 0
M  V30 4640 H 454.258 -1.91189 3.48615 0
M  V30 4641 N 455.255 -1.55392 -0.262866 0
M  V30 4642 C 456.504 -1.75679 -0.990943 0
M  V30 4643 C 456.817 -0.57097 -1.87081 0
M  V30 4644 O 458.023 -0.656486 -2.63444 0
M  V30 4645 C 456.479 -3.10964 -1.81188 0
M  V30 4646 C 456.087 -4.37146 -0.980188 0
M  V30 4647 C 457.831 -3.40597 -2.53365 0
M  V30 4648 C 455.738 -5.63466 -1.7961 0
M  V30 4649 H 454.668 -0.654868 -0.373716 0
M  V30 4650 H 457.319 -1.81841 -0.246203 0
M  V30 4651 H 455.701 -2.98867 -2.59797 0
M  V30 4652 H 456.875 -4.60187 -0.237558 0
M  V30 4653 H 455.19 -4.14731 -0.372497 0
M  V30 4654 H 457.787 -4.32186 -3.14833 0
M  V30 4655 H 458.13 -2.6119 -3.24169 0
M  V30 4656 H 458.663 -3.53838 -1.81779 0
M  V30 4657 H 455.402 -6.4565 -1.13209 0
M  V30 4658 H 454.922 -5.44552 -2.51443 0
M  V30 4659 H 456.601 -6.02139 -2.36723 0
M  V30 4660 N 456.733 0.527833 -1.48498 0
M  V30 4661 C 457.961 1.30823 -1.6029 0
M  V30 4662 C 458.376 1.86945 -0.263974 0
M  V30 4663 O 457.733 1.6651 0.747034 0
M  V30 4664 C 457.784 2.45756 -2.65116 0
M  V30 4665 O 457.505 1.91946 -3.93813 0
M  V30 4666 C 459.006 3.37543 -2.87367 0
M  V30 4667 H 456.226 0.397763 -0.540394 0
M  V30 4668 H 458.77 0.636529 -1.94341 0
M  V30 4669 H 456.925 3.08806 -2.33917 0
M  V30 4670 H 457.339 2.67195 -4.51339 0
M  V30 4671 H 458.813 4.14532 -3.6451 0
M  V30 4672 H 459.29 3.92905 -1.9627 0
M  V30 4673 H 459.896 2.80283 -3.19878 0
M  V30 4674 N 458.211 1.37122 0.776871 0
M  V30 4675 C 459.158 1.3247 1.88998 0
M  V30 4676 C 460.128 0.191143 1.64997 0
M  V30 4677 O 461.313 0.379683 1.86984 0
M  V30 4678 C 458.453 1.13241 3.25992 0
M  V30 4679 C 457.566 2.35782 3.61982 0
M  V30 4680 C 456.701 2.09465 4.88158 0
M  V30 4681 C 455.74 3.279 5.16864 0
M  V30 4682 N 454.877 3.01167 6.34226 0
M  V30 4683 H 459.717 2.27642 1.9231 0
M  V30 4684 H 457.254 1.13125 0.94027 0
M  V30 4685 H 459.212 1.00115 4.0501 0
M  V30 4686 H 457.842 0.217186 3.22069 0
M  V30 4687 H 456.894 2.59666 2.77989 0
M  V30 4688 H 458.206 3.24125 3.79137 0
M  V30 4689 H 457.36 1.93341 5.75069 0
M  V30 4690 H 456.099 1.18452 4.73097 0
M  V30 4691 H 455.104 3.44569 4.2843 0
M  V30 4692 H 456.329 4.19757 5.33836 0
M  V30 4693 H 454.275 2.12779 6.20533 0
M  V30 4694 H 454.192 3.83052 6.51772 0
M  V30 4695 H 455.46 2.88649 7.24087 0
M  V30 4696 N 459.689 -1.00246 1.21608 0
M  V30 4697 C 460.935 -1.74319 1.03638 0
M  V30 4698 C 461.268 -1.89408 -0.428749 0
M  V30 4699 O 460.543 -1.43026 -1.3181 0
M  V30 4700 C 460.826 -3.15431 1.73711 0
M  V30 4701 C 460.679 -3.08049 3.27759 0
M  V30 4702 C 461.998 -4.14407 1.48173 0
M  V30 4703 H 459.117 -0.632741 0.377899 0
M  V30 4704 H 461.759 -1.16853 1.49818 0
M  V30 4705 H 459.909 -3.64493 1.34452 0
M  V30 4706 H 461.581 -2.66681 3.76403 0
M  V30 4707 H 459.824 -2.45088 3.57931 0
M  V30 4708 H 460.495 -4.07862 3.71958 0
M  V30 4709 H 462.971 -3.74061 1.82258 0
M  V30 4710 H 461.847 -5.11279 1.99713 0
M  V30 4711 H 462.108 -4.40174 0.412273 0
M  V30 4712 N 461.167 -1.02423 -1.1978 0
M  V30 4713 C 462.13 -0.605703 -2.21052 0
M  V30 4714 C 463.13 0.328209 -1.57415 0
M  V30 4715 O 464.32 0.115853 -1.73814 0
M  V30 4716 C 461.452 0.114366 -3.40708 0
M  V30 4717 H 462.645 -1.5017 -2.59594 0
M  V30 4718 H 460.198 -0.814888 -1.33376 0
M  V30 4719 H 460.933 1.02492 -3.07678 0
M  V30 4720 H 460.718 -0.556641 -3.88129 0
M  V30 4721 H 462.208 0.394272 -4.15735 0
M  V30 4722 N 462.645 1.35699 -0.801477 0
M  V30 4723 C 464.061 1.52065 -0.484596 0
M  V30 4724 C 464.261 1.75215 0.995084 0
M  V30 4725 O 463.317 1.79061 1.78026 0
M  V30 4726 C 464.63 2.69908 -1.32552 0
M  V30 4727 C 466.178 2.83784 -1.32044 0
M  V30 4728 C 466.653 4.04646 -2.14536 0
M  V30 4729 N 468.144 4.11814 -2.12046 0
M  V30 4730 C 468.879 5.04437 -2.72636 0
M  V30 4731 N 468.375 6.02426 -3.42133 0
M  V30 4732 N 470.168 4.97144 -2.62305 0
M  V30 4733 H 462.319 1.18928 -1.75983 0
M  V30 4734 H 464.582 0.581455 -0.748741 0
M  V30 4735 H 464.288 2.59363 -2.37537 0
M  V30 4736 H 464.162 3.64376 -0.975181 0
M  V30 4737 H 466.549 2.93783 -0.27846 0
M  V30 4738 H 466.63 1.90188 -1.71062 0
M  V30 4739 H 466.274 3.95407 -3.18772 0
M  V30 4740 H 466.204 4.97413 -1.72882 0
M  V30 4741 H 468.695 3.41664 -1.61476 0
M  V30 4742 H 469.008 6.69688 -3.85666 0
M  V30 4743 H 467.353 6.02615 -3.46237 0
M  V30 4744 H 470.544 4.19546 -2.07603 0
M  V30 4745 H 470.717 5.69138 -3.09815 0
M  V30 4746 N 464.123 0.554532 1.47522 0
M  V30 4747 C 465.539 0.214107 1.58157 0
M  V30 4748 C 465.739 -1.28331 1.55349 0
M  V30 4749 O 464.795 -2.06329 1.45549 0
M  V30 4750 C 466.108 0.838391 2.88776 0
M  V30 4751 C 467.656 0.809374 3.02354 0
M  V30 4752 C 468.131 1.41268 4.35669 0
M  V30 4753 N 469.622 1.37574 4.42298 0
M  V30 4754 C 470.357 1.8122 5.4401 0
M  V30 4755 N 469.853 2.3271 6.52547 0
M  V30 4756 N 471.646 1.72307 5.35039 0
M  V30 4757 H 463.797 1.52744 1.4759 0
M  V30 4758 H 466.06 0.636812 0.702264 0
M  V30 4759 H 465.766 1.89065 2.96559 0
M  V30 4760 H 465.64 0.329847 3.75755 0
M  V30 4761 H 468.027 -0.234187 2.94169 0
M  V30 4762 H 468.108 1.35565 2.16924 0
M  V30 4763 H 467.752 2.45529 4.4461 0
M  V30 4764 H 467.682 0.841871 5.19827 0
M  V30 4765 H 470.173 0.999081 3.64454 0
M  V30 4766 H 470.486 2.63944 7.26329 0
M  V30 4767 H 468.831 2.36719 6.53444 0
M  V30 4768 H 472.022 1.3186 4.49144 0
M  V30 4769 H 472.195 2.06641 6.14169 0
M  V30 4770 N 465.601 -1.54893 0.290851 0
M  V30 4771 C 466.551 -2.19838 -0.604599 0
M  V30 4772 C 467.535 -1.16805 -1.10659 0
M  V30 4773 O 468.727 -1.42562 -1.04905 0
M  V30 4774 C 465.856 -2.93497 -1.78086 0
M  V30 4775 C 464.942 -4.03835 -1.29531 0
M  V30 4776 N 465.333 -5.03047 -0.527024 0
M  V30 4777 C 463.631 -4.17192 -1.57693 0
M  V30 4778 C 464.332 -5.81074 -0.269728 0
M  V30 4779 N 463.308 -5.36966 -0.846651 0
M  V30 4780 H 467.11 -2.93898 -0.00995032 0
M  V30 4781 H 464.624 -1.62121 0.0951353 0
M  V30 4782 H 466.621 -3.38484 -2.43381 0
M  V30 4783 H 465.281 -2.2095 -2.37931 0
M  V30 4784 H 466.292 -5.17611 -0.172872 0
M  V30 4785 H 462.969 -3.55845 -2.18359 0
M  V30 4786 H 464.359 -6.71005 0.346643 0
M  V30 4787 N 467.08 -0.0183926 -1.57589 0
M  V30 4788 C 468.496 0.337897 -1.55982 0
M  V30 4789 C 468.696 1.73604 -1.02294 0
M  V30 4790 O 467.752 2.43589 -0.664895 0
M  V30 4791 C 469.065 0.196305 -3.00059 0
M  V30 4792 C 470.613 0.269875 -3.11834 0
M  V30 4793 C 471.088 0.157197 -4.5773 0
M  V30 4794 N 472.579 0.214521 -4.62703 0
M  V30 4795 C 473.314 0.150955 -5.73201 0
M  V30 4796 N 472.81 0.0369212 -6.9279 0
M  V30 4797 N 474.603 0.204162 -5.61729 0
M  V30 4798 H 466.754 -0.93279 -1.90821 0
M  V30 4799 H 469.017 -0.359253 -0.877292 0
M  V30 4800 H 468.723 -0.766383 -3.43248 0
M  V30 4801 H 468.597 0.970908 -3.6449 0
M  V30 4802 H 470.984 1.22302 -2.68563 0
M  V30 4803 H 471.065 -0.534918 -2.50144 0
M  V30 4804 H 470.709 -0.792479 -5.01679 0
M  V30 4805 H 470.639 0.980717 -5.17387 0
M  V30 4806 H 473.13 0.303238 -3.76681 0
M  V30 4807 H 473.443 -0.00518321 -7.728 0
M  V30 4808 H 471.788 0.0022886 -6.95 0
M  V30 4809 H 474.979 0.291575 -4.67191 0
M  V30 4810 H 475.152 0.15116 -6.47824 0
M  V30 4811 N 468.558 1.5553 0.254621 0
M  V30 4812 C 469.491 1.84624 1.34124 0
M  V30 4813 C 470.469 0.700693 1.46728 0
M  V30 4814 O 471.653 0.94564 1.63064 0
M  V30 4815 C 468.78 2.02412 2.71564 0
M  V30 4816 C 467.826 3.25028 2.7615 0
M  V30 4817 S 468.659 4.81893 2.33538 0
M  V30 4818 C 469.815 5.02677 3.72917 0
M  V30 4819 H 470.048 2.76501 1.09245 0
M  V30 4820 H 467.581 1.47537 0.455211 0
M  V30 4821 H 469.539 2.13345 3.50705 0
M  V30 4822 H 468.2 1.11391 2.93685 0
M  V30 4823 H 467.393 3.34418 3.77069 0
M  V30 4824 H 466.995 3.12781 2.05046 0
M  V30 4825 H 469.287 4.89546 4.68349 0
M  V30 4826 H 470.23 6.0468 3.68467 0
M  V30 4827 H 470.638 4.30561 3.65072 0
M  V30 4828 N 470.036 -0.519951 1.48776 0
M  V30 4829 C 471.261 -1.30447 1.6124 0
M  V30 4830 C 471.686 -1.86055 0.276591 0
M  V30 4831 O 471.044 -1.64915 -0.753183 0
M  V30 4832 C 471.092 -2.42406 2.66967 0
M  V30 4833 O 470.196 -3.45728 2.24824 0
M  V30 4834 H 469.537 -0.385924 0.540332 0
M  V30 4835 H 472.067 -0.624572 1.94834 0
M  V30 4836 H 472.077 -2.88447 2.88552 0
M  V30 4837 H 470.752 -2.01294 3.63941 0
M  V30 4838 H 469.329 -3.05737 2.13494 0
M  V30 4839 N 471.514 -1.37532 -0.769588 0
M  V30 4840 C 472.925 -1.29382 -1.346 0
M  V30 4841 C 473.276 0.0576039 -1.96115 0
M  V30 4842 O 472.401 0.95947 -1.93967 0
M  V30 4843 C 472.996 -2.34298 -2.44724 0
M  V30 4844 C 471.555 -2.29776 -2.98128 0
M  V30 4845 C 470.702 -2.18013 -1.71364 0
M  V30 4846 H 473.653 -1.48123 -0.56968 0
M  V30 4847 H 473.674 -1.99089 -3.24259 0
M  V30 4848 H 473.186 -3.32645 -1.99922 0
M  V30 4849 H 471.287 -1.34959 -3.47299 0
M  V30 4850 H 471.4 -3.23276 -3.53595 0
M  V30 4851 H 469.764 -1.64595 -1.94372 0
M  V30 4852 H 470.547 -3.18278 -1.28662 0
M  V30 4853 N 472.992 0.995999 -1.22138 0
M  V30 4854 C 474.239 1.7351 -1.04406 0
M  V30 4855 C 474.567 1.89884 0.421244 0
M  V30 4856 O 473.822 1.43683 1.32867 0
M  V30 4857 C 474.121 3.14553 -1.6968 0
M  V30 4858 C 473.787 3.18102 -3.19565 0
M  V30 4859 C 472.449 3.18778 -3.60464 0
M  V30 4860 C 474.801 3.14636 -4.15516 0
M  V30 4861 C 472.129 3.13684 -4.95801 0
M  V30 4862 C 474.481 3.11084 -5.50826 0
M  V30 4863 C 473.145 3.10074 -5.91109 0
M  V30 4864 H 472.415 0.634916 -0.38205 0
M  V30 4865 H 475.062 1.1667 -1.51857 0
M  V30 4866 H 473.367 3.74682 -1.14546 0
M  V30 4867 H 475.064 3.70477 -1.53454 0
M  V30 4868 H 471.654 3.18324 -2.86998 0
M  V30 4869 H 475.838 3.13266 -3.84939 0
M  V30 4870 H 471.094 3.11245 -5.26247 0
M  V30 4871 H 475.268 3.07357 -6.24904 0
M  V30 4872 H 472.895 3.05882 -6.95946 0
M  V30 4873 N 474.47 1.03057 1.19235 0
M  V30 4874 C 475.881 0.757449 1.70645 0
M  V30 4875 C 476.232 -0.722735 1.82403 0
M  V30 4876 O 475.357 -1.56325 1.49638 0
M  V30 4877 C 475.952 1.36833 3.09939 0
M  V30 4878 C 474.511 1.14375 3.58602 0
M  V30 4879 C 473.658 1.46533 2.35422 0
M  V30 4880 H 476.609 1.19828 1.04052 0
M  V30 4881 H 476.63 0.766184 3.72706 0
M  V30 4882 H 476.142 2.44562 3.01349 0
M  V30 4883 H 474.243 0.0847542 3.72504 0
M  V30 4884 H 474.356 1.83366 4.42622 0
M  V30 4885 H 472.72 0.884712 2.38841 0
M  V30 4886 H 473.503 2.55349 2.2946 0
M  V30 4887 N 475.948 -1.35272 0.808662 0
M  V30 4888 C 476.878 -2.32315 0.234981 0
M  V30 4889 C 477.859 -1.57572 -0.64071 0
M  V30 4890 O 479.044 -1.8563 -0.570551 0
M  V30 4891 C 476.174 -3.41801 -0.615601 0
M  V30 4892 C 475.128 -4.27694 0.161767 0
M  V30 4893 C 474.454 -5.28519 -0.810649 0
M  V30 4894 C 475.754 -5.04231 1.36193 0
M  V30 4895 H 477.448 -2.80543 1.04575 0
M  V30 4896 H 474.994 -1.3488 0.504315 0
M  V30 4897 H 476.947 -4.08693 -1.02702 0
M  V30 4898 H 475.671 -2.92186 -1.45928 0
M  V30 4899 H 474.33 -3.62384 0.554382 0
M  V30 4900 H 473.978 -4.75171 -1.64988 0
M  V30 4901 H 473.678 -5.8686 -0.294822 0
M  V30 4902 H 475.202 -5.98283 -1.22023 0
M  V30 4903 H 476.616 -5.64058 1.02528 0
M  V30 4904 H 475.013 -5.72077 1.81239 0
M  V30 4905 H 476.083 -4.34753 2.14751 0
M  V30 4906 N 477.426 -0.562348 -1.47226 0
M  V30 4907 C 478.654 -0.0452275 -2.06851 0
M  V30 4908 C 479.069 1.25078 -1.41424 0
M  V30 4909 O 478.426 1.75156 -0.512513 0
M  V30 4910 C 478.477 0.148674 -3.61194 0
M  V30 4911 O 478.198 -1.09602 -4.24169 0
M  V30 4912 C 479.699 0.702488 -4.37699 0
M  V30 4913 H 476.919 -0.0481775 -0.669268 0
M  V30 4914 H 479.463 -0.777223 -1.89155 0
M  V30 4915 H 477.618 0.830817 -3.78386 0
M  V30 4916 H 478.032 -0.896982 -5.16773 0
M  V30 4917 H 479.506 0.78743 -5.46355 0
M  V30 4918 H 479.983 1.71493 -4.04335 0
M  V30 4919 H 480.589 0.0558772 -4.25263 0
M  V30 4920 N 478.904 1.54736 -0.299062 0
M  V30 4921 C 480.129 2.04975 0.316254 0
M  V30 4922 C 480.554 1.17501 1.46885 0
M  V30 4923 O 479.912 0.178678 1.80417 0
M  V30 4924 C 479.96 3.52672 0.751997 0
M  V30 4925 O 479.064 3.68226 1.85697 0
M  V30 4926 H 478.405 0.661126 0.0617175 0
M  V30 4927 H 480.935 1.99805 -0.440341 0
M  V30 4928 H 480.945 3.94488 1.04133 0
M  V30 4929 H 479.62 4.158 -0.0911482 0
M  V30 4930 H 478.197 3.38316 1.56834 0
M  V30 4931 N 480.382 0.0267497 1.57577 0
M  V30 4932 C 481.315 -0.99059 2.05579 0
M  V30 4933 C 482.293 -1.31884 0.951065 0
M  V30 4934 O 483.477 -1.43592 1.22121 0
M  V30 4935 C 480.604 -2.31125 2.47586 0
M  V30 4936 C 479.65 -2.13777 3.69055 0
M  V30 4937 S 480.483 -1.4388 5.15809 0
M  V30 4938 C 481.639 -2.77321 5.6111 0
M  V30 4939 H 481.872 -0.581976 2.91548 0
M  V30 4940 H 479.405 -0.184876 1.53289 0
M  V30 4941 H 481.363 -3.07049 2.72454 0
M  V30 4942 H 480.024 -2.6912 1.61967 0
M  V30 4943 H 479.217 -3.11405 3.96287 0
M  V30 4944 H 478.819 -1.45996 3.44327 0
M  V30 4945 H 481.111 -3.73565 5.65204 0
M  V30 4946 H 482.054 -2.54756 6.60685 0
M  V30 4947 H 482.462 -2.82459 4.88751 0
M  V30 4948 N 481.861 -1.55662 -0.24637 0
M  V30 4949 C 483.138 -1.68272 -0.997198 0
M  V30 4950 C 483.518 -0.566785 -2.03349 0
M  V30 4951 O 482.866 0.429688 -2.24424 0
M  V30 4952 C 483.076 -3.08594 -1.63006 0
M  V30 4953 C 484.424 -3.6721 -2.13171 0
M  V30 4954 O 485.448 -3.11397 -1.72946 0
M  V30 4955 O 484.307 -4.65054 -2.87031 0
M  V30 4956 H 481.401 -0.684429 -0.464205 0
M  V30 4957 H 483.947 -1.67993 -0.240114 0
M  V30 4958 H 482.719 -3.81264 -0.880527 0
M  V30 4959 H 482.342 -3.12886 -2.45333 0
M  V30 4960 N 483.339 0.512053 -1.4905 0
M  V30 4961 C 484.286 1.6148 -1.64902 0
M  V30 4962 C 485.256 1.58687 -0.490673 0
M  V30 4963 O 486.441 1.76842 -0.71636 0
M  V30 4964 C 483.581 2.99676 -1.71139 0
M  V30 4965 C 482.694 3.12568 -2.98203 0
M  V30 4966 C 481.829 4.4143 -2.95487 0
M  V30 4967 C 480.868 4.47916 -4.17179 0
M  V30 4968 N 480.005 5.68191 -4.12437 0
M  V30 4969 H 484.845 1.47271 -2.59066 0
M  V30 4970 H 482.382 0.716713 -1.28459 0
M  V30 4971 H 484.34 3.79761 -1.72736 0
M  V30 4972 H 482.97 3.12614 -0.804508 0
M  V30 4973 H 482.022 2.25618 -3.06269 0
M  V30 4974 H 483.334 3.1322 -3.88194 0
M  V30 4975 H 482.488 5.29825 -2.95585 0
M  V30 4976 H 481.227 4.43326 -2.03256 0
M  V30 4977 H 480.232 3.57925 -4.17337 0
M  V30 4978 H 481.457 4.47744 -5.1059 0
M  V30 4979 H 479.403 5.7095 -3.23036 0
M  V30 4980 H 479.32 5.70413 -4.96151 0
M  V30 4981 H 480.588 6.58823 -4.16621 0
M  V30 4982 N 484.817 1.37938 0.762283 0
M  V30 4983 C 485.78 1.34279 1.85747 0
M  V30 4984 C 486.78 0.244969 1.58923 0
M  V30 4985 O 487.97 0.501365 1.66829 0
M  V30 4986 C 485.102 1.08833 3.23061 0
M  V30 4987 H 486.295 2.31705 1.90401 0
M  V30 4988 H 483.848 1.23105 0.963057 0
M  V30 4989 H 484.583 0.119767 3.24079 0
M  V30 4990 H 484.368 1.88306 3.43923 0
M  V30 4991 H 485.858 1.08946 4.03138 0
M  V30 4992 N 486.295 -0.989507 1.22664 0
M  V30 4993 C 487.542 -1.72953 1.05325 0
M  V30 4994 C 487.87 -1.90104 -0.411168 0
M  V30 4995 O 487.125 -1.44386 -1.32103 0
M  V30 4996 C 487.424 -3.13649 1.71345 0
M  V30 4997 C 487.09 -3.16403 3.21248 0
M  V30 4998 C 485.752 -3.16862 3.62149 0
M  V30 4999 C 488.104 -3.12428 4.17179 0
M  V30 5000 C 485.432 -3.11051 4.97458 0
M  V30 5001 C 487.784 -3.08159 5.52468 0
M  V30 5002 C 486.448 -3.06935 5.92746 0
M  V30 5003 H 485.718 -0.632881 0.385412 0
M  V30 5004 H 488.365 -1.15863 1.52473 0
M  V30 5005 H 486.67 -3.74069 1.16532 0
M  V30 5006 H 488.367 -3.69658 1.55416 0
M  V30 5007 H 484.957 -3.16798 2.88682 0
M  V30 5008 H 489.141 -3.11221 3.86595 0
M  V30 5009 H 484.397 -3.0845 5.27891 0
M  V30 5010 H 488.571 -3.04039 6.26525 0
M  V30 5011 H 486.198 -3.02186 6.97558 0
M  V30 5012 N 487.773 -1.03688 -1.18687 0
M  V30 5013 C 489.022 -0.733235 -1.879 0
M  V30 5014 C 489.335 0.741745 -1.8099 0
M  V30 5015 O 490.541 1.15875 -2.4553 0
M  V30 5016 C 488.997 -1.26127 -3.37076 0
M  V30 5017 C 488.605 -2.76461 -3.52524 0
M  V30 5018 C 490.349 -1.03398 -4.11715 0
M  V30 5019 C 488.256 -3.22642 -4.95637 0
M  V30 5020 H 487.186 -0.270584 -0.703776 0
M  V30 5021 H 489.837 -1.25222 -1.34133 0
M  V30 5022 H 488.219 -0.670165 -3.90288 0
M  V30 5023 H 489.393 -3.41296 -3.09602 0
M  V30 5024 H 487.708 -2.97559 -2.91286 0
M  V30 5025 H 490.305 -1.3542 -5.17267 0
M  V30 5026 H 490.648 0.0289246 -4.1629 0
M  V30 5027 H 491.181 -1.5895 -3.64664 0
M  V30 5028 H 487.92 -4.28296 -4.96228 0
M  V30 5029 H 487.44 -2.62539 -5.39289 0
M  V30 5030 H 489.119 -3.16444 -5.64333 0
M  V30 5031 N 489.251 1.34841 -0.815825 0
M  V30 5032 C 490.479 2.0273 -0.413294 0
M  V30 5033 C 490.894 1.61459 0.978599 0
M  V30 5034 O 490.251 0.816584 1.63212 0
M  V30 5035 C 490.302 3.58058 -0.497676 0
M  V30 5036 O 490.023 3.97832 -1.8347 0
M  V30 5037 C 491.524 4.4321 -0.0891339 0
M  V30 5038 H 488.744 0.649956 -0.166728 0
M  V30 5039 H 491.288 1.72267 -1.10201 0
M  V30 5040 H 489.443 3.87136 0.142886 0
M  V30 5041 H 489.857 4.92501 -1.80396 0
M  V30 5042 H 491.331 5.5164 -0.199274 0
M  V30 5043 H 491.808 4.28432 0.966571 0
M  V30 5044 H 492.414 4.19446 -0.703214 0
M  V30 5045 N 490.729 0.570148 1.46925 0
M  V30 5046 C 491.975 0.0510284 2.02736 0
M  V30 5047 C 492.308 -1.3006 1.44215 0
M  V30 5048 O 491.583 -1.84932 0.602521 0
M  V30 5049 C 491.866 -0.028215 3.60089 0
M  V30 5050 C 491.719 1.35142 4.29018 0
M  V30 5051 C 493.038 -0.735181 4.33916 0
M  V30 5052 H 490.157 0.0200178 0.736728 0
M  V30 5053 H 492.799 0.73493 1.75211 0
M  V30 5054 H 490.949 -0.610648 3.83671 0
M  V30 5055 H 492.621 1.97806 4.16738 0
M  V30 5056 H 490.864 1.9226 3.88868 0
M  V30 5057 H 491.535 1.24857 5.37694 0
M  V30 5058 H 494.011 -0.240519 4.15404 0
M  V30 5059 H 492.887 -0.759622 5.43618 0
M  V30 5060 H 493.148 -1.79397 4.04066 0
M  V30 5061 N 492.207 -1.54576 0.307264 0
M  V30 5062 C 493.137 -2.26708 -0.55907 0
M  V30 5063 C 494.118 -1.26893 -1.1328 0
M  V30 5064 O 495.303 -1.55677 -1.16097 0
M  V30 5065 C 492.433 -3.01259 -1.72801 0
M  V30 5066 C 491.387 -4.08275 -1.28435 0
M  V30 5067 C 490.713 -4.70575 -2.53895 0
M  V30 5068 C 492.013 -5.2068 -0.411038 0
M  V30 5069 H 493.707 -2.9937 0.042576 0
M  V30 5070 H 491.253 -1.43983 0.0219173 0
M  V30 5071 H 493.206 -3.50444 -2.34023 0
M  V30 5072 H 491.93 -2.26187 -2.356 0
M  V30 5073 H 490.589 -3.59949 -0.695161 0
M  V30 5074 H 490.237 -3.92136 -3.15021 0
M  V30 5075 H 489.937 -5.42854 -2.24908 0
M  V30 5076 H 491.461 -5.22527 -3.15908 0
M  V30 5077 H 492.875 -5.65721 -0.929097 0
M  V30 5078 H 491.272 -5.99716 -0.214664 0
M  V30 5079 H 492.342 -4.81629 0.562287 0
M  V30 5080 N 493.685 -0.035106 -1.57561 0
M  V30 5081 C 494.595 0.960295 -2.14046 0
M  V30 5082 C 495.611 1.3529 -1.0942 0
M  V30 5083 O 496.787 1.43309 -1.41508 0
M  V30 5084 C 493.852 2.22214 -2.66124 0
M  V30 5085 C 492.913 1.8894 -3.85487 0
M  V30 5086 C 492.146 3.09109 -4.35072 0
M  V30 5087 O 492.369 4.21963 -3.83802 0
M  V30 5088 O 491.303 2.91058 -5.26848 0
M  V30 5089 H 495.129 0.509983 -2.99387 0
M  V30 5090 H 492.714 0.185853 -1.48239 0
M  V30 5091 H 494.596 2.96279 -2.99661 0
M  V30 5092 H 493.271 2.66414 -1.83862 0
M  V30 5093 H 492.178 1.12241 -3.56865 0
M  V30 5094 H 493.511 1.49551 -4.6893 0
M  V30 5095 N 495.163 1.55791 0.238111 0
M  V30 5096 C 496.096 1.86036 1.32158 0
M  V30 5097 C 497.074 0.716216 1.45976 0
M  V30 5098 O 498.258 0.962882 1.62052 0
M  V30 5099 C 495.385 2.05281 2.69402 0
M  V30 5100 C 494.431 3.27939 2.72687 0
M  V30 5101 S 495.264 4.84342 2.28413 0
M  V30 5102 C 496.42 5.06604 3.67565 0
M  V30 5103 H 496.653 2.77644 1.06306 0
M  V30 5104 H 494.186 1.48012 0.439537 0
M  V30 5105 H 496.144 2.17053 3.48423 0
M  V30 5106 H 494.805 1.14499 2.92487 0
M  V30 5107 H 493.998 3.38398 3.73501 0
M  V30 5108 H 493.6 3.14938 2.01717 0
M  V30 5109 H 495.892 4.94486 4.6313 0
M  V30 5110 H 496.835 6.08554 3.62033 0
M  V30 5111 H 497.243 4.34409 3.60485 0
M  V30 5112 N 496.642 -0.504142 1.49319 0
M  V30 5113 C 497.87 -1.28256 1.62351 0
M  V30 5114 C 498.285 -1.86502 0.293682 0
M  V30 5115 O 497.642 -1.67678 -0.720449 0
M  V30 5116 C 497.693 -2.41507 2.68992 0
M  V30 5117 O 497.414 -1.85656 3.96817 0
M  V30 5118 C 498.915 -3.32929 2.927 0
M  V30 5119 H 496.135 -0.389115 0.546654 0
M  V30 5120 H 498.679 -0.605531 1.95329 0
M  V30 5121 H 496.834 -3.05046 2.38801 0
M  V30 5122 H 497.248 -2.59981 4.55533 0
M  V30 5123 H 498.722 -4.0868 3.71058 0
M  V30 5124 H 499.199 -3.89733 2.02496 0
M  V30 5125 H 499.805 -2.75158 3.24296 0
M  V30 5126 N 498.12 -1.38341 -0.754957 0
M  V30 5127 C 499.531 -1.30803 -1.3322 0
M  V30 5128 C 499.882 0.0368 -1.96165 0
M  V30 5129 O 499.007 0.938844 -1.94974 0
M  V30 5130 C 499.602 -2.3688 -2.42225 0
M  V30 5131 C 498.161 -2.32925 -2.95674 0
M  V30 5132 C 497.308 -2.19819 -1.69042 0
M  V30 5133 H 500.259 -1.48719 -0.553937 0
M  V30 5134 H 500.28 -2.02517 -3.22129 0
M  V30 5135 H 499.792 -3.34747 -1.96383 0
M  V30 5136 H 497.893 -1.38635 -3.45848 0
M  V30 5137 H 498.006 -3.27008 -3.50146 0
M  V30 5138 H 496.37 -1.66648 -1.92615 0
M  V30 5139 H 497.153 -3.19625 -1.25279 0
M  V30 5140 N 499.598 0.982988 -1.23187 0
M  V30 5141 C 500.844 1.72648 -1.06398 0
M  V30 5142 C 501.177 1.90066 0.398561 0
M  V30 5143 O 500.452 1.45105 1.29518 0
M  V30 5144 C 500.735 3.12627 -1.78707 0
M  V30 5145 C 500.588 3.02795 -3.32618 0
M  V30 5146 C 501.907 4.11997 -1.54747 0
M  V30 5147 H 499.026 0.626649 -0.387918 0
M  V30 5148 H 501.668 1.14455 -1.51658 0
M  V30 5149 H 499.818 3.62308 -1.40234 0
M  V30 5150 H 501.49 2.60659 -3.80598 0
M  V30 5151 H 499.733 2.39362 -3.61785 0
M  V30 5152 H 500.404 4.01893 -3.78399 0
M  V30 5153 H 502.88 3.71114 -1.88186 0
M  V30 5154 H 501.756 5.08037 -2.07821 0
M  V30 5155 H 502.017 4.39462 -0.482249 0
M  V30 5156 N 501.076 1.04316 1.18135 0
M  V30 5157 C 502.006 0.657299 2.24058 0
M  V30 5158 C 502.987 -0.340678 1.66654 0
M  V30 5159 O 504.172 -0.220223 1.92947 0
M  V30 5160 C 501.302 0.0220715 3.47293 0
M  V30 5161 C 500.256 0.943857 4.17463 0
M  V30 5162 C 499.582 0.172973 5.3442 0
M  V30 5163 C 500.882 2.26409 4.70677 0
M  V30 5164 H 502.576 1.5428 2.56589 0
M  V30 5165 H 500.122 0.743263 1.23335 0
M  V30 5166 H 502.075 -0.259607 4.206 0
M  V30 5167 H 500.799 -0.898323 3.14003 0
M  V30 5168 H 499.458 1.20996 3.46057 0
M  V30 5169 H 499.106 -0.749907 4.97379 0
M  V30 5170 H 498.806 0.787098 5.82304 0
M  V30 5171 H 500.33 -0.101628 6.10515 0
M  V30 5172 H 501.744 2.04294 5.35665 0
M  V30 5173 H 500.141 2.8314 5.29105 0
M  V30 5174 H 501.211 2.90883 3.87962 0
M  V30 5175 N 502.554 -1.34406 0.822964 0
M  V30 5176 C 503.802 -1.97892 0.410245 0
M  V30 5177 C 504.123 -1.65567 -1.03017 0
M  V30 5178 O 503.393 -0.94642 -1.71522 0
M  V30 5179 H 501.973 -0.732049 0.148707 0
M  V30 5180 H 504.635 -1.64043 1.05242 0
M  V30 5181 H 503.731 -3.07579 0.529284 0
M  V30 5182 N 504.032 -0.577932 -1.46621 0
M  V30 5183 C 505.26 -0.0671642 -2.06791 0
M  V30 5184 C 505.675 1.23571 -1.42743 0
M  V30 5185 O 505.032 1.74602 -0.531062 0
M  V30 5186 C 505.083 0.110357 -3.61332 0
M  V30 5187 O 504.804 -1.14095 -4.22982 0
M  V30 5188 C 506.305 0.656025 -4.38419 0
M  V30 5189 H 503.525 -0.0552732 -0.66872 0
M  V30 5190 H 506.069 -0.797242 -1.8832 0
M  V30 5191 H 504.224 0.790637 -3.79246 0
M  V30 5192 H 504.638 -0.951742 -5.15793 0
M  V30 5193 H 506.112 0.729438 -5.47159 0
M  V30 5194 H 506.589 1.67195 -4.06131 0
M  V30 5195 H 507.195 0.0107692 -4.25299 0
M  V30 5196 N 505.51 1.54411 -0.315457 0
M  V30 5197 C 506.42 2.27737 0.56329 0
M  V30 5198 C 507.436 1.31787 1.13614 0
M  V30 5199 O 508.612 1.64791 1.15784 0
M  V30 5200 C 505.677 3.01478 1.71207 0
M  V30 5201 C 504.738 4.12997 1.17185 0
M  V30 5202 C 503.971 4.83212 2.26588 0
M  V30 5203 O 504.194 4.52884 3.46775 0
M  V30 5204 O 503.128 5.70299 1.92463 0
M  V30 5205 H 506.954 3.03683 -0.0319614 0
M  V30 5206 H 504.539 1.49178 -0.0814188 0
M  V30 5207 H 506.421 3.47683 2.38106 0
M  V30 5208 H 505.096 2.28414 2.29366 0
M  V30 5209 H 504.003 3.71159 0.468174 0
M  V30 5210 H 505.336 4.8808 0.635501 0
M  V30 5211 N 506.988 0.0434614 1.5754 0
M  V30 5212 C 508.237 -0.631454 1.91561 0
M  V30 5213 C 508.55 -1.72457 0.92292 0
M  V30 5214 O 509.756 -2.45712 1.15489 0
M  V30 5215 C 508.212 -1.17447 3.40197 0
M  V30 5216 C 507.82 -0.113867 4.47855 0
M  V30 5217 C 509.564 -1.82507 3.83264 0
M  V30 5218 C 507.471 -0.669326 5.876 0
M  V30 5219 H 506.401 -0.239629 0.714908 0
M  V30 5220 H 509.052 0.111097 1.83163 0
M  V30 5221 H 507.434 -1.96909 3.43574 0
M  V30 5222 H 508.608 0.659348 4.56058 0
M  V30 5223 H 506.923 0.438821 4.14081 0
M  V30 5224 H 509.52 -2.25047 4.85034 0
M  V30 5225 H 509.863 -2.67365 3.19095 0
M  V30 5226 H 510.396 -1.09712 3.82372 0
M  V30 5227 H 507.135 0.141449 6.55347 0
M  V30 5228 H 506.655 -1.4107 5.82974 0
M  V30 5229 H 508.334 -1.15463 6.36614 0
M  V30 5230 N 508.466 -1.55915 -0.229846 0
M  V30 5231 C 509.715 -1.77742 -0.953455 0
M  V30 5232 C 510.028 -0.610524 -1.85828 0
M  V30 5233 O 511.234 -0.712219 -2.61992 0
M  V30 5234 C 509.69 -3.14738 -1.74551 0
M  V30 5235 C 509.298 -4.39126 -0.887242 0
M  V30 5236 C 511.042 -3.45895 -2.46084 0
M  V30 5237 C 508.949 -5.67149 -1.67617 0
M  V30 5238 H 507.879 -0.662648 -0.359741 0
M  V30 5239 H 510.53 -1.82322 -0.207576 0
M  V30 5240 H 508.912 -3.04311 -2.53399 0
M  V30 5241 H 510.086 -4.60588 -0.139892 0
M  V30 5242 H 508.401 -4.15427 -0.284443 0
M  V30 5243 H 510.998 -4.38767 -3.05594 0
M  V30 5244 H 511.341 -2.68007 -3.18556 0
M  V30 5245 H 511.874 -3.57614 -1.74233 0
M  V30 5246 H 508.613 -6.47906 -0.994881 0
M  V30 5247 H 508.133 -5.49763 -2.39836 0
M  V30 5248 H 509.812 -6.07025 -2.23898 0
M  V30 5249 N 509.944 0.496216 -1.49584 0
M  V30 5250 C 510.892 1.61805 -1.67098 0
M  V30 5251 C 511.886 1.60667 -0.536877 0
M  V30 5252 O 513.092 1.65118 -0.716654 0
M  V30 5253 H 509.467 0.53646 -0.526986 0
M  V30 5254 H 511.438 1.44187 -2.61252 0
M  V30 5255 C 510.187 2.99912 -1.75921 0
M  V30 5256 H 509.51 3.01496 -2.62565 0
M  V30 5257 H 510.95 3.77931 -1.92209 0
M  V30 5258 C 509.409 3.33092 -0.505088 0
M  V30 5259 O 509.939 4.00019 0.367085 0
M  V30 5260 N 508.145 2.88278 -0.366599 0
M  V30 5261 H 507.692 2.33989 -1.07735 0
M  V30 5262 H 507.65 3.10846 0.47142 0
M  V30 5263 N 511.423 1.38739 0.74761 0
M  V30 5264 C 512.653 1.3832 1.53464 0
M  V30 5265 C 513.061 -0.0273464 1.8918 0
M  V30 5266 O 512.404 -1.00588 1.53713 0
M  V30 5267 C 512.466 2.18007 2.85855 0
M  V30 5268 C 512.13 3.66762 2.72644 0
M  V30 5269 C 513.127 4.60124 2.42037 0
M  V30 5270 C 510.812 4.10193 2.89909 0
M  V30 5271 C 512.806 5.94897 2.28859 0
M  V30 5272 C 510.493 5.45045 2.7635 0
M  V30 5273 C 511.491 6.37211 2.45869 0
M  V30 5274 O 511.179 7.69581 2.3238 0
M  V30 5275 H 510.911 0.474718 0.481268 0
M  V30 5276 H 513.465 1.83012 0.932518 0
M  V30 5277 H 511.695 1.68043 3.48279 0
M  V30 5278 H 513.384 2.09921 3.47402 0
M  V30 5279 H 514.15 4.27874 2.28361 0
M  V30 5280 H 510.029 3.38797 3.1263 0
M  V30 5281 H 513.573 6.66802 2.04989 0
M  V30 5282 H 509.47 5.76889 2.89601 0
M  V30 5283 H 510.238 7.80169 2.47546 0
M  V30 5284 N 512.901 -0.976442 1.23707 0
M  V30 5285 C 514.317 -1.24341 1.00058 0
M  V30 5286 C 514.517 -1.99315 -0.295932 0
M  V30 5287 O 513.573 -2.3123 -1.01435 0
M  V30 5288 C 514.886 -2.03909 2.21001 0
M  V30 5289 C 516.434 -2.17034 2.25534 0
M  V30 5290 C 516.909 -2.99994 3.46075 0
M  V30 5291 N 518.4 -3.07578 3.46338 0
M  V30 5292 C 519.135 -3.72104 4.36264 0
M  V30 5293 N 518.631 -4.3842 5.36432 0
M  V30 5294 N 520.424 -3.69029 4.23998 0
M  V30 5295 H 512.575 -0.47428 2.07037 0
M  V30 5296 H 514.838 -0.272167 0.908091 0
M  V30 5297 H 514.544 -1.56198 3.15111 0
M  V30 5298 H 514.418 -3.04654 2.22409 0
M  V30 5299 H 516.805 -2.63951 1.31961 0
M  V30 5300 H 516.886 -1.15664 2.28156 0
M  V30 5301 H 516.53 -2.53772 4.39957 0
M  V30 5302 H 516.46 -4.01541 3.40694 0
M  V30 5303 H 518.951 -2.60397 2.73865 0
M  V30 5304 H 519.264 -4.85447 6.013 0
M  V30 5305 H 517.609 -4.37116 5.40328 0
M  V30 5306 H 520.8 -3.16392 3.44984 0
M  V30 5307 H 520.973 -4.19034 4.94282 0
M  V30 5308 N 514.379 -1.04941 -1.1758 0
M  V30 5309 C 515.656 -0.671918 -1.83697 0
M  V30 5310 C 516.036 0.847929 -1.93322 0
M  V30 5311 O 515.384 1.75287 -1.46583 0
M  V30 5312 C 515.594 -1.35797 -3.21497 0
M  V30 5313 C 516.942 -1.4944 -3.97433 0
M  V30 5314 O 517.966 -1.31678 -3.30967 0
M  V30 5315 O 516.825 -1.78463 -5.1654 0
M  V30 5316 H 513.919 -0.236212 -0.792548 0
M  V30 5317 H 516.465 -1.14884 -1.24899 0
M  V30 5318 H 515.237 -2.39498 -3.09446 0
M  V30 5319 H 514.86 -0.870236 -3.8796 0
M  V30 5320 N 515.857 1.33968 -0.830081 0
M  V30 5321 C 517.105 1.97672 -0.420734 0
M  V30 5322 C 517.426 1.66111 1.02138 0
M  V30 5323 O 516.696 0.955503 1.71017 0
M  V30 5324 H 515.276 0.73125 -0.152587 0
M  V30 5325 H 517.938 1.63483 -1.0611 0
M  V30 5326 H 517.034 3.07294 -0.545588 0
M  V30 5327 N 517.335 0.585699 1.46312 0
M  V30 5328 C 518.268 -0.194257 2.27372 0
M  V30 5329 C 519.246 -0.894116 1.3581 0
M  V30 5330 O 520.43 -0.907402 1.65222 0
M  V30 5331 C 517.557 -1.27901 3.13622 0
M  V30 5332 C 516.603 -0.684666 4.20969 0
M  V30 5333 S 517.436 0.490745 5.33247 0
M  V30 5334 C 518.592 -0.595137 6.23064 0
M  V30 5335 H 518.825 0.493515 2.93175 0
M  V30 5336 H 516.358 0.372666 1.49835 0
M  V30 5337 H 518.316 -1.90008 3.63878 0
M  V30 5338 H 516.977 -1.93875 2.47126 0
M  V30 5339 H 516.17 -1.50015 4.81156 0
M  V30 5340 H 515.772 -0.139204 3.73741 0
M  V30 5341 H 518.064 -1.48002 6.61137 0
M  V30 5342 H 519.007 -0.0299446 7.08094 0
M  V30 5343 H 519.415 -0.900627 5.57269 0
M  V30 5344 N 518.813 -1.54241 0.323641 0
M  V30 5345 C 520.061 -2.00174 -0.278359 0
M  V30 5346 C 520.382 -1.2134 -1.52648 0
M  V30 5347 O 519.652 -0.315244 -1.93347 0
M  V30 5348 H 518.232 -0.739463 -0.105845 0
M  V30 5349 H 520.894 -1.89864 0.440204 0
M  V30 5350 H 519.99 -3.07486 -0.5347 0
M  V30 5351 N 520.291 -0.0518155 -1.57515 0
M  V30 5352 C 521.707 0.304735 -1.56664 0
M  V30 5353 C 521.907 1.71395 -1.05953 0
M  V30 5354 O 520.963 2.42123 -0.716414 0
M  V30 5355 C 522.276 0.132614 -3.00407 0
M  V30 5356 C 523.824 0.20367 -3.12337 0
M  V30 5357 C 524.299 0.0600706 -4.57961 0
M  V30 5358 N 525.79 0.116326 -4.63054 0
M  V30 5359 C 526.525 0.0293363 -5.73392 0
M  V30 5360 N 526.021 -0.110038 -6.92713 0
M  V30 5361 N 527.814 0.0849651 -5.62036 0
M  V30 5362 H 519.965 -0.973056 -1.888 0
M  V30 5363 H 522.228 -0.377781 -0.869474 0
M  V30 5364 H 521.934 -0.839019 -3.41546 0
M  V30 5365 H 521.808 0.893376 -3.66468 0
M  V30 5366 H 524.195 1.16578 -2.71097 0
M  V30 5367 H 524.276 -0.587857 -2.48954 0
M  V30 5368 H 523.92 -0.898715 -4.99886 0
M  V30 5369 H 523.85 0.87075 -5.19351 0
M  V30 5370 H 526.341 0.22327 -3.7724 0
M  V30 5371 H 526.654 -0.169104 -7.72615 0
M  V30 5372 H 524.999 -0.145132 -6.94848 0
M  V30 5373 H 528.19 0.192411 -4.67704 0
M  V30 5374 H 528.363 0.0137131 -6.47999 0
M  V30 5375 N 521.769 1.56035 0.221574 0
M  V30 5376 C 523.015 1.79312 0.947372 0
M  V30 5377 C 523.348 0.621453 1.83988 0
M  V30 5378 O 522.623 -0.379287 1.90766 0
M  V30 5379 C 522.906 3.1267 1.78633 0
M  V30 5380 C 522.759 4.40284 0.920312 0
M  V30 5381 C 524.078 3.4247 2.7641 0
M  V30 5382 H 521.197 0.652328 0.342982 0
M  V30 5383 H 523.839 1.88765 0.216244 0
M  V30 5384 H 521.989 3.04741 2.40967 0
M  V30 5385 H 523.661 4.60232 0.313718 0
M  V30 5386 H 521.904 4.33212 0.225734 0
M  V30 5387 H 522.575 5.30033 1.54171 0
M  V30 5388 H 525.051 3.50526 2.24211 0
M  V30 5389 H 523.927 4.3695 3.32213 0
M  V30 5390 H 524.188 2.64635 3.54148 0
M  V30 5391 N 523.247 -0.488276 1.49845 0
M  V30 5392 C 524.177 -1.59675 1.70371 0
M  V30 5393 C 525.158 -1.60878 0.552473 0
M  V30 5394 O 526.343 -1.77417 0.78973 0
M  V30 5395 C 523.473 -2.98098 1.782 0
M  V30 5396 C 522.427 -3.11761 2.93239 0
M  V30 5397 C 521.753 -4.51661 2.86193 0
M  V30 5398 C 523.053 -2.90589 4.33999 0
M  V30 5399 H 524.747 -1.42752 2.63177 0
M  V30 5400 H 522.293 -0.685317 1.26647 0
M  V30 5401 H 524.246 -3.75555 1.91144 0
M  V30 5402 H 522.97 -3.16138 0.820018 0
M  V30 5403 H 521.629 -2.36732 2.79917 0
M  V30 5404 H 521.277 -4.66595 1.87877 0
M  V30 5405 H 520.977 -4.61742 3.63412 0
M  V30 5406 H 522.501 -5.31162 3.01163 0
M  V30 5407 H 523.915 -3.57807 4.47936 0
M  V30 5408 H 522.312 -3.1213 5.12538 0
M  V30 5409 H 523.382 -1.86595 4.4756 0
M  V30 5410 N 524.725 -1.39134 -0.740242 0
M  V30 5411 C 525.688 -1.37217 -1.83587 0
M  V30 5412 C 526.688 -0.270221 -1.58513 0
M  V30 5413 O 527.878 -0.527843 -1.6601 0
M  V30 5414 C 525.01 -1.13959 -3.21288 0
M  V30 5415 H 526.203 -2.34705 -1.86691 0
M  V30 5416 H 523.756 -1.24622 -0.94335 0
M  V30 5417 H 524.491 -0.17131 -3.23847 0
M  V30 5418 H 524.276 -1.93754 -3.40884 0
M  V30 5419 H 525.766 -1.15346 -4.01354 0
M  V30 5420 N 526.204 0.969867 -1.24223 0
M  V30 5421 C 527.136 2.0669 -0.99055 0
M  V30 5422 C 528.149 1.62753 0.0392222 0
M  V30 5423 O 529.338 1.77403 -0.197561 0
M  V30 5424 C 526.438 3.35589 -0.472594 0
M  V30 5425 C 525.611 4.08444 -1.56499 0
M  V30 5426 C 524.67 5.15616 -1.05007 0
M  V30 5427 O 523.696 5.41911 -1.7413 0
M  V30 5428 N 524.898 5.80383 0.116641 0
M  V30 5429 H 527.663 2.28855 -1.93508 0
M  V30 5430 H 525.224 1.13733 -1.15223 0
M  V30 5431 H 527.216 4.04542 -0.112919 0
M  V30 5432 H 525.786 3.10311 0.377617 0
M  V30 5433 H 525.006 3.33798 -2.09696 0
M  V30 5434 H 526.294 4.53882 -2.29932 0
M  V30 5435 H 525.692 5.6142 0.694589 0
M  V30 5436 H 524.249 6.50462 0.417483 0
M  V30 5437 N 527.682 1.05563 1.17022 0
M  V30 5438 C 528.959 0.68165 1.83338 0
M  V30 5439 C 529.339 -0.837665 1.93769 0
M  V30 5440 O 528.687 -1.74507 1.47511 0
M  V30 5441 C 528.897 1.375 3.20772 0
M  V30 5442 C 530.245 1.51545 3.96635 0
M  V30 5443 O 531.269 1.33431 3.30264 0
M  V30 5444 O 530.128 1.812 5.15586 0
M  V30 5445 H 527.222 0.240412 0.791285 0
M  V30 5446 H 529.768 1.15545 1.24288 0
M  V30 5447 H 528.54 2.41135 3.08171 0
M  V30 5448 H 528.163 0.890798 3.87493 0
M  V30 5449 N 529.16 -1.33526 0.837174 0
M  V30 5450 C 530.406 -1.9813 0.432704 0
M  V30 5451 C 530.739 -1.66168 -1.00508 0
M  V30 5452 O 530.014 -0.94069 -1.70239 0
M  V30 5453 C 530.297 -3.54151 0.651834 0
M  V30 5454 C 530.15 -3.95806 2.13676 0
M  V30 5455 C 531.469 -4.39993 0.0968937 0
M  V30 5456 H 528.588 -0.719713 0.15869 0
M  V30 5457 H 531.23 -1.58193 1.05237 0
M  V30 5458 H 529.38 -3.88301 0.124369 0
M  V30 5459 H 531.052 -3.71921 2.72896 0
M  V30 5460 H 529.295 -3.45599 2.62191 0
M  V30 5461 H 529.966 -5.0447 2.24084 0
M  V30 5462 H 532.442 -4.12479 0.547733 0
M  V30 5463 H 531.318 -5.48186 0.279917 0
M  V30 5464 H 531.579 -4.3066 -0.9992 0
M  V30 5465 N 530.638 -0.59345 -1.46 0
M  V30 5466 C 531.868 -0.0889642 -2.06408 0
M  V30 5467 C 532.276 1.22597 -1.44106 0
M  V30 5468 O 531.619 1.75448 -0.544398 0
M  V30 5469 C 531.681 0.139902 -3.59228 0
M  V30 5470 C 531.345 -1.09107 -4.43784 0
M  V30 5471 C 532.342 -2.00577 -4.79651 0
M  V30 5472 C 530.027 -1.31593 -4.84756 0
M  V30 5473 C 532.021 -3.12873 -5.55328 0
M  V30 5474 C 529.708 -2.44192 -5.60191 0
M  V30 5475 C 530.706 -3.34661 -5.95392 0
M  V30 5476 O 530.394 -4.45302 -6.69299 0
M  V30 5477 H 530.126 -0.0594613 -0.67338 0
M  V30 5478 H 532.68 -0.817 -1.88452 0
M  V30 5479 H 530.91 0.922672 -3.75531 0
M  V30 5480 H 532.599 0.594228 -4.01527 0
M  V30 5481 H 533.365 -1.84425 -4.48567 0
M  V30 5482 H 529.244 -0.620801 -4.56801 0
M  V30 5483 H 532.788 -3.83511 -5.82722 0
M  V30 5484 H 528.685 -2.60303 -5.90688 0
M  V30 5485 H 529.453 -4.43805 -6.87735 0
M  V30 5486 N 532.116 1.54067 -0.331816 0
M  V30 5487 C 533.079 2.23275 0.517768 0
M  V30 5488 C 534.079 1.22897 1.03697 0
M  V30 5489 O 535.269 1.47419 0.928084 0
M  V30 5490 C 532.401 2.94326 1.72004 0
M  V30 5491 H 533.594 2.99773 -0.0873507 0
M  V30 5492 H 531.147 1.56079 -0.0830042 0
M  V30 5493 H 531.882 2.21986 2.36417 0
M  V30 5494 H 531.667 3.67941 1.35507 0
M  V30 5495 H 533.157 3.47031 2.32291 0
M  V30 5496 N 533.594 0.0601682 1.57485 0
M  V30 5497 C 534.541 -0.91112 2.12055 0
M  V30 5498 C 535.511 -1.30298 1.03013 0
M  V30 5499 O 536.696 -1.39087 1.30612 0
M  V30 5500 C 533.836 -2.1775 2.67729 0
M  V30 5501 C 532.949 -1.83933 3.90887 0
M  V30 5502 C 532.084 -3.05096 4.34845 0
M  V30 5503 C 531.123 -2.67241 5.5068 0
M  V30 5504 N 530.26 -3.81127 5.8965 0
M  V30 5505 H 535.1 -0.43888 2.9475 0
M  V30 5506 H 532.637 -0.204995 1.45665 0
M  V30 5507 H 534.595 -2.91866 2.98111 0
M  V30 5508 H 533.225 -2.62535 1.87816 0
M  V30 5509 H 532.277 -0.999287 3.6704 0
M  V30 5510 H 533.589 -1.52074 4.75052 0
M  V30 5511 H 532.743 -3.87502 4.66827 0
M  V30 5512 H 531.482 -3.40139 3.49509 0
M  V30 5513 H 530.487 -1.83254 5.18361 0
M  V30 5514 H 531.712 -2.3338 6.37738 0
M  V30 5515 H 529.658 -4.15954 5.07266 0
M  V30 5516 H 529.575 -3.52997 6.68528 0
M  V30 5517 H 530.843 -4.64145 6.2625 0
M  V30 5518 N 535.072 -1.5615 -0.213296 0
M  V30 5519 C 536.349 -1.70349 -0.961281 0
M  V30 5520 C 536.729 -0.609791 -2.02101 0
M  V30 5521 O 536.077 0.381987 -2.25285 0
M  V30 5522 C 536.287 -3.11982 -1.56424 0
M  V30 5523 C 537.635 -3.71649 -2.05334 0
M  V30 5524 O 538.659 -3.14995 -1.66302 0
M  V30 5525 O 537.518 -4.71038 -2.77102 0
M  V30 5526 H 534.612 -0.694121 -0.449582 0
M  V30 5527 H 537.158 -1.68464 -0.204426 0
M  V30 5528 H 535.93 -3.83046 -0.799457 0
M  V30 5529 H 535.553 -3.18019 -2.38641 0
M  V30 5530 N 536.55 0.480323 -1.50102 0
M  V30 5531 C 537.498 1.60024 -1.68805 0
M  V30 5532 C 538.492 1.60089 -0.553888 0
M  V30 5533 O 539.698 1.64349 -0.734127 0
M  V30 5534 H 536.073 0.530841 -0.532646 0
M  V30 5535 H 538.044 1.41408 -2.62767 0
M  V30 5536 C 536.793 2.98029 -1.79092 0
M  V30 5537 H 536.116 2.98694 -2.65748 0
M  V30 5538 H 537.556 3.75871 -1.96206 0
M  V30 5539 C 536.015 3.32538 -0.540388 0
M  V30 5540 O 536.545 4.00386 0.324637 0
M  V30 5541 N 534.751 2.87873 -0.397154 0
M  V30 5542 H 534.298 2.32834 -1.1021 0
M  V30 5543 H 534.256 3.11328 0.438425 0
M  V30 5544 N 538.028 1.39524 0.732853 0
M  V30 5545 C 538.958 1.41153 1.86005 0
M  V30 5546 C 539.939 0.274614 1.67869 0
M  V30 5547 O 541.124 0.480745 1.88155 0
M  V30 5548 C 538.254 1.25638 3.23778 0
M  V30 5549 C 537.208 2.36752 3.56556 0
M  V30 5550 C 536.534 2.06326 4.93289 0
M  V30 5551 C 537.834 3.79069 3.5931 0
M  V30 5552 H 539.528 2.35484 1.84899 0
M  V30 5553 H 537.074 1.13348 0.888162 0
M  V30 5554 H 539.027 1.25398 4.0231 0
M  V30 5555 H 537.751 0.277772 3.25417 0
M  V30 5556 H 536.41 2.36213 2.80355 0
M  V30 5557 H 536.058 1.06897 4.9151 0
M  V30 5558 H 535.758 2.80757 5.16187 0
M  V30 5559 H 537.282 2.07739 5.74175 0
M  V30 5560 H 538.696 3.81526 4.27914 0
M  V30 5561 H 537.093 4.52878 3.93728 0
M  V30 5562 H 538.163 4.09893 2.59068 0
M  V30 5563 N 539.506 -0.963266 1.24736 0
M  V30 5564 C 540.917 -1.52145 1.08207 0
M  V30 5565 C 541.268 -1.93142 -0.345061 0
M  V30 5566 O 540.393 -1.77769 -1.23399 0
M  V30 5567 C 540.988 -2.76486 1.95808 0
M  V30 5568 C 539.547 -3.28646 1.8349 0
M  V30 5569 C 538.694 -2.01529 1.90476 0
M  V30 5570 H 541.645 -0.781083 1.38148 0
M  V30 5571 H 541.666 -3.49986 1.49297 0
M  V30 5572 H 541.178 -2.46617 2.99669 0
M  V30 5573 H 539.279 -3.63357 0.824787 0
M  V30 5574 H 539.392 -3.97246 2.67829 0
M  V30 5575 H 537.756 -2.16442 1.34258 0
M  V30 5576 H 538.539 -1.7402 2.95926 0
M  V30 5577 N 540.985 -1.06182 -1.16461 0
M  V30 5578 C 542.396 -0.802426 -1.68576 0
M  V30 5579 C 542.747 0.67412 -1.84255 0
M  V30 5580 O 541.872 1.52303 -1.5373 0
M  V30 5581 C 542.467 -1.45002 -3.06202 0
M  V30 5582 C 541.026 -1.23843 -3.55443 0
M  V30 5583 C 540.173 -1.52724 -2.31454 0
M  V30 5584 H 543.124 -1.22545 -1.00839 0
M  V30 5585 H 543.145 -0.864731 -3.70544 0
M  V30 5586 H 542.657 -2.52466 -2.94759 0
M  V30 5587 H 540.758 -0.183487 -3.72148 0
M  V30 5588 H 540.871 -1.95036 -4.37604 0
M  V30 5589 H 539.235 -0.947726 -2.36411 0
M  V30 5590 H 540.018 -2.61343 -2.22609 0
M  V30 5591 N 542.463 1.3308 -0.844243 0
M  V30 5592 C 543.71 1.97605 -0.44255 0
M  V30 5593 C 544.038 1.66856 0.999458 0
M  V30 5594 O 543.293 0.943586 1.7145 0
M  V30 5595 C 543.592 3.52045 -0.616354 0
M  V30 5596 C 543.258 4.02757 -2.02726 0
M  V30 5597 C 541.92 4.16316 -2.41317 0
M  V30 5598 C 544.272 4.29776 -2.9486 0
M  V30 5599 C 541.6 4.54232 -3.71335 0
M  V30 5600 C 543.952 4.69146 -4.24364 0
M  V30 5601 C 542.616 4.80911 -4.62904 0
M  V30 5602 H 541.886 0.723088 -0.161941 0
M  V30 5603 H 544.533 1.58663 -1.0723 0
M  V30 5604 H 542.838 3.91681 0.0966812 0
M  V30 5605 H 544.535 3.99981 -0.285756 0
M  V30 5606 H 541.125 3.9268 -1.71756 0
M  V30 5607 H 545.309 4.18818 -2.6628 0
M  V30 5608 H 540.565 4.61535 -4.00993 0
M  V30 5609 H 544.739 4.89008 -4.95827 0
M  V30 5610 H 542.366 5.10048 -5.63698 0
M  V30 5611 N 543.941 0.601185 1.45683 0
M  V30 5612 C 545.352 0.179659 1.85834 0
M  V30 5613 C 545.703 -1.26189 1.50236 0
M  V30 5614 O 544.828 -1.95587 0.925987 0
M  V30 5615 C 545.423 0.319277 3.37292 0
M  V30 5616 C 543.982 -0.0475092 3.7637 0
M  V30 5617 C 543.129 0.646692 2.69654 0
M  V30 5618 H 546.08 0.808268 1.36575 0
M  V30 5619 H 546.101 -0.4503 3.77826 0
M  V30 5620 H 545.613 1.36855 3.6317 0
M  V30 5621 H 543.714 -1.0962 3.5611 0
M  V30 5622 H 543.827 0.34168 4.7788 0
M  V30 5623 H 542.191 0.0849971 2.54558 0
M  V30 5624 H 542.974 1.69797 2.98369 0
M  V30 5625 N 545.419 -1.53889 0.339982 0
M  V30 5626 C 546.382 -2.23547 -0.50592 0
M  V30 5627 C 547.382 -1.23445 -1.03044 0
M  V30 5628 O 548.572 -1.47909 -0.920253 0
M  V30 5629 C 545.704 -2.95234 -1.7044 0
M  V30 5630 H 546.897 -2.99722 0.103247 0
M  V30 5631 H 544.45 -1.56033 0.0912804 0
M  V30 5632 H 545.185 -2.23236 -2.35236 0
M  V30 5633 H 544.97 -3.68654 -1.33553 0
M  V30 5634 H 546.46 -3.48258 -2.30447 0
M  V30 5635 N 546.897 -0.0685191 -1.57451 0
M  V30 5636 C 548.122 0.613919 -1.98106 0
M  V30 5637 C 548.547 1.62551 -0.946501 0
M  V30 5638 O 547.905 1.81085 0.0882824 0
M  V30 5639 C 547.953 1.26189 -3.378 0
M  V30 5640 O 547.057 2.37773 -3.36954 0
M  V30 5641 H 546.398 0.158163 -0.644888 0
M  V30 5642 H 548.928 -0.142063 -2.04106 0
M  V30 5643 H 548.938 1.60951 -3.74912 0
M  V30 5644 H 547.613 0.520625 -4.12629 0
M  V30 5645 H 546.19 2.04829 -3.11608 0
M  V30 5646 N 548.375 1.56261 0.205012 0
M  V30 5647 C 549.621 1.80306 0.9283 0
M  V30 5648 C 549.954 0.640932 1.83319 0
M  V30 5649 O 549.229 -0.359032 1.91158 0
M  V30 5650 C 549.512 3.14547 1.75306 0
M  V30 5651 C 549.365 4.41236 0.873562 0
M  V30 5652 C 550.684 3.45382 2.72762 0
M  V30 5653 H 547.803 0.655929 0.336044 0
M  V30 5654 H 550.445 1.88984 0.196211 0
M  V30 5655 H 548.595 3.0728 2.37721 0
M  V30 5656 H 550.267 4.60539 0.264887 0
M  V30 5657 H 548.51 4.33427 0.179773 0
M  V30 5658 H 549.181 5.31639 1.48541 0
M  V30 5659 H 551.657 3.52884 2.20481 0
M  V30 5660 H 550.533 4.40449 3.2756 0
M  V30 5661 H 550.794 2.68377 3.51321 0
M  V30 5662 N 549.853 -0.472356 1.50355 0
M  V30 5663 C 550.8 -1.57051 1.69126 0
M  V30 5664 C 551.77 -1.5733 0.532574 0
M  V30 5665 O 552.955 -1.7488 0.762994 0
M  V30 5666 C 550.095 -2.95033 1.79024 0
M  V30 5667 C 549.208 -3.04552 3.06386 0
M  V30 5668 C 548.343 -4.33441 3.07087 0
M  V30 5669 C 547.382 -4.36697 4.28908 0
M  V30 5670 N 546.519 -5.57056 4.27356 0
M  V30 5671 H 551.359 -1.40351 2.62879 0
M  V30 5672 H 548.896 -0.682403 1.30314 0
M  V30 5673 H 550.854 -3.75048 1.82744 0
M  V30 5674 H 549.484 -3.10371 0.887109 0
M  V30 5675 H 548.536 -2.17419 3.12143 0
M  V30 5676 H 549.848 -3.02818 3.96362 0
M  V30 5677 H 549.002 -5.21801 3.09529 0
M  V30 5678 H 547.741 -4.37782 2.14939 0
M  V30 5679 H 546.746 -3.46734 4.2668 0
M  V30 5680 H 547.971 -4.34049 5.22282 0
M  V30 5681 H 545.917 -5.62184 3.3806 0
M  V30 5682 H 545.834 -5.57058 5.111 0
M  V30 5683 H 547.102 -6.47545 4.33942 0
M  V30 5684 N 551.331 -1.39911 -0.725443 0
M  V30 5685 C 552.608 -1.28158 -1.47766 0
M  V30 5686 C 552.988 0.104545 -2.10841 0
M  V30 5687 O 552.336 1.11657 -1.99361 0
M  V30 5688 C 552.546 -2.41306 -2.52135 0
M  V30 5689 C 553.894 -2.81076 -3.18247 0
M  V30 5690 O 554.918 -2.40827 -2.62452 0
M  V30 5691 O 553.777 -3.50581 -4.19231 0
M  V30 5692 H 550.871 -0.502761 -0.656628 0
M  V30 5693 H 553.417 -1.51808 -0.758456 0
M  V30 5694 H 552.189 -3.33932 -2.03974 0
M  V30 5695 H 551.812 -2.19374 -3.31603 0
M  V30 5696 N 552.809 0.956637 -1.25245 0
M  V30 5697 C 554.057 1.69764 -1.09657 0
M  V30 5698 C 554.378 1.91583 0.363464 0
M  V30 5699 O 553.648 1.50149 1.25825 0
M  V30 5700 H 552.228 0.629097 -0.402798 0
M  V30 5701 H 554.89 1.15026 -1.57337 0
M  V30 5702 H 553.986 2.67769 -1.60331 0
M  V30 5703 N 554.287 1.06798 1.15896 0
M  V30 5704 C 555.517 0.807522 1.90165 0
M  V30 5705 C 555.925 -0.642417 1.7796 0
M  V30 5706 O 555.268 -1.45193 1.12537 0
M  V30 5707 C 555.33 1.12939 3.41299 0
M  V30 5708 C 554.994 2.57879 3.7729 0
M  V30 5709 C 555.991 3.56118 3.78782 0
M  V30 5710 C 553.676 2.93311 4.07767 0
M  V30 5711 C 555.67 4.87827 4.10248 0
M  V30 5712 C 553.357 4.25219 4.38899 0
M  V30 5713 C 554.355 5.22287 4.4012 0
M  V30 5714 O 554.043 6.51826 4.70508 0
M  V30 5715 H 553.775 0.291946 0.609708 0
M  V30 5716 H 556.329 1.42627 1.47806 0
M  V30 5717 H 554.559 0.45359 3.84031 0
M  V30 5718 H 556.248 0.852363 3.9685 0
M  V30 5719 H 557.014 3.30086 3.55342 0
M  V30 5720 H 552.893 2.18409 4.05979 0
M  V30 5721 H 556.437 5.63586 4.11116 0
M  V30 5722 H 552.334 4.51006 4.61805 0
M  V30 5723 H 553.102 6.56893 4.88298 0
M  V30 5724 N 555.766 -1.3263 0.851289 0
M  V30 5725 C 556.729 -2.27247 0.298541 0
M  V30 5726 C 557.729 -1.51467 -0.539847 0
M  V30 5727 O 558.919 -1.7061 -0.351843 0
M  V30 5728 C 556.051 -3.35964 -0.578004 0
M  V30 5729 H 557.244 -2.7765 1.13359 0
M  V30 5730 H 554.797 -1.43245 0.625354 0
M  V30 5731 H 555.532 -2.90823 -1.435 0
M  V30 5732 H 555.317 -3.92094 0.0220539 0
M  V30 5733 H 556.807 -4.06472 -0.957626 0
M  V30 5734 N 557.244 -0.608902 -1.45362 0
M  V30 5735 C 558.49 -0.104762 -2.02529 0
M  V30 5736 C 558.823 1.26191 -1.47613 0
M  V30 5737 O 558.098 1.8327 -0.65134 0
M  V30 5738 C 558.381 -0.0672661 -3.60037 0
M  V30 5739 C 558.234 -1.4647 -4.25284 0
M  V30 5740 C 559.553 0.619877 -4.35713 0
M  V30 5741 H 556.672 -0.0395438 -0.735938 0
M  V30 5742 H 559.314 -0.781126 -1.73201 0
M  V30 5743 H 557.464 0.50871 -3.85155 0
M  V30 5744 H 559.136 -2.08785 -4.11347 0
M  V30 5745 H 557.379 -2.02502 -3.83634 0
M  V30 5746 H 558.05 -1.39069 -5.34195 0
M  V30 5747 H 560.526 0.130297 -4.15896 0
M  V30 5748 H 559.402 0.615224 -5.45441 0
M  V30 5749 H 559.663 1.68621 -4.0868 0
M  V30 5750 N 558.722 1.53707 -0.348139 0
M  V30 5751 C 560.138 1.596 0.00361134 0
M  V30 5752 C 560.338 1.36394 1.4832 0
M  V30 5753 O 559.394 1.16046 2.24253 0
M  V30 5754 C 560.707 2.97512 -0.436682 0
M  V30 5755 C 562.255 3.10568 -0.389416 0
M  V30 5756 C 562.73 4.50866 -0.805249 0
M  V30 5757 N 564.221 4.56929 -0.759616 0
M  V30 5758 C 564.956 5.63643 -1.05327 0
M  V30 5759 N 564.452 6.78189 -1.41531 0
M  V30 5760 N 566.245 5.5354 -0.977207 0
M  V30 5761 H 558.396 1.67044 -1.31187 0
M  V30 5762 H 560.659 0.782559 -0.535075 0
M  V30 5763 H 560.365 3.19575 -1.46849 0
M  V30 5764 H 560.239 3.76742 0.185744 0
M  V30 5765 H 562.626 2.88226 0.633228 0
M  V30 5766 H 562.707 2.33387 -1.04711 0
M  V30 5767 H 562.351 4.73943 -1.82593 0
M  V30 5768 H 562.281 5.26452 -0.124989 0
M  V30 5769 H 564.772 3.74675 -0.49265 0
M  V30 5770 H 565.085 7.55541 -1.62411 0
M  V30 5771 H 563.43 6.79624 -1.45381 0
M  V30 5772 H 566.621 4.62932 -0.693675 0
M  V30 5773 H 566.794 6.36614 -1.2094 0
M  V30 5774 N 560.2 0.0768682 1.57412 0
M  V30 5775 C 561.163 -0.873949 2.11884 0
M  V30 5776 C 562.163 -1.22301 1.04398 0
M  V30 5777 O 563.353 -1.15545 1.30365 0
M  V30 5778 C 560.485 -2.17575 2.62438 0
M  V30 5779 H 561.678 -0.401278 2.97203 0
M  V30 5780 H 559.231 -0.171904 1.55352 0
M  V30 5781 H 559.966 -2.69368 1.80587 0
M  V30 5782 H 559.751 -1.93534 3.41009 0
M  V30 5783 H 561.241 -2.85631 3.04639 0
M  V30 5784 N 561.678 -1.56367 -0.196722 0
M  V30 5785 C 562.641 -1.93561 -1.22746 0
M  V30 5786 C 563.641 -0.816566 -1.38524 0
M  V30 5787 O 564.831 -1.084 -1.36363 0
M  V30 5788 C 561.963 -2.20823 -2.59712 0
M  V30 5789 H 563.156 -2.85774 -0.909586 0
M  V30 5790 H 560.709 -1.50032 -0.438174 0
M  V30 5791 H 561.444 -1.31243 -2.96557 0
M  V30 5792 H 561.229 -3.02368 -2.49632 0
M  V30 5793 H 562.719 -2.50608 -3.34044 0
M  V30 5794 N 563.156 0.464375 -1.50603 0
M  V30 5795 C 564.433 1.22549 -1.5245 0
M  V30 5796 C 564.813 2.09327 -0.273035 0
M  V30 5797 O 564.161 2.16074 0.743242 0
M  V30 5798 C 564.371 2.05074 -2.82393 0
M  V30 5799 C 565.719 2.63036 -3.33313 0
M  V30 5800 O 566.743 2.1531 -2.8376 0
M  V30 5801 O 565.602 3.5001 -4.19709 0
M  V30 5802 H 562.696 0.556471 -0.611775 0
M  V30 5803 H 565.242 0.475648 -1.62898 0
M  V30 5804 H 564.014 1.41169 -3.64948 0
M  V30 5805 H 563.637 2.87179 -2.7498 0
M  V30 5806 N 564.634 1.40294 0.718013 0
M  V30 5807 C 565.882 1.38167 1.47494 0
M  V30 5808 C 566.203 -0.01607 1.94993 0
M  V30 5809 O 565.473 -0.970396 1.70177 0
M  V30 5810 H 564.053 0.508505 0.547203 0
M  V30 5811 H 566.715 1.75324 0.851322 0
M  V30 5812 H 565.811 2.05503 2.34894 0
M  V30 5813 N 566.112 -0.949982 1.2575 0
M  V30 5814 C 567.523 -1.50989 1.09815 0
M  V30 5815 C 567.874 -1.93497 -0.324556 0
M  V30 5816 O 566.999 -1.79068 -1.21506 0
M  V30 5817 C 567.594 -2.74394 1.98729 0
M  V30 5818 C 566.153 -3.26682 1.86965 0
M  V30 5819 C 565.3 -1.99498 1.92603 0
M  V30 5820 H 568.251 -0.766387 1.38968 0
M  V30 5821 H 568.272 -3.48383 1.53001 0
M  V30 5822 H 567.784 -2.43425 3.02268 0
M  V30 5823 H 565.885 -3.62461 0.863279 0
M  V30 5824 H 565.998 -3.94383 2.72027 0
M  V30 5825 H 564.362 -2.15005 1.36546 0
M  V30 5826 H 565.145 -1.70871 2.97755 0
M  V30 5827 N 567.59 -1.07411 -1.15328 0
M  V30 5828 C 568.838 -0.796073 -1.85761 0
M  V30 5829 C 569.159 0.679864 -1.82764 0
M  V30 5830 O 568.429 1.49242 -1.269 0
M  V30 5831 H 567.009 -0.291495 -0.687779 0
M  V30 5832 H 569.671 -1.35799 -1.39802 0
M  V30 5833 H 568.767 -1.13114 -2.90881 0
M  V30 5834 N 569.068 1.32177 -0.85831 0
M  V30 5835 C 570.345 1.91781 -0.384624 0
M  V30 5836 C 570.725 1.78171 1.13217 0
M  V30 5837 O 570.073 1.18209 1.95548 0
M  V30 5838 C 570.283 3.38414 -0.853047 0
M  V30 5839 C 571.631 4.15542 -0.872359 0
M  V30 5840 O 572.655 3.47148 -0.797926 0
M  V30 5841 O 571.514 5.37678 -0.978009 0
M  V30 5842 H 568.608 0.819259 -0.112886 0
M  V30 5843 H 571.154 1.40923 -0.945453 0
M  V30 5844 H 569.926 3.4228 -1.89632 0
M  V30 5845 H 569.549 3.96683 -0.269874 0
M  V30 5846 N 570.547 0.616602 1.45037 0
M  V30 5847 C 571.963 0.280994 1.57107 0
M  V30 5848 C 572.163 -1.21627 1.60653 0
M  V30 5849 O 571.219 -1.9997 1.54169 0
M  V30 5850 C 572.532 0.960116 2.8496 0
M  V30 5851 C 574.08 0.936884 2.98649 0
M  V30 5852 C 574.555 1.59619 4.29285 0
M  V30 5853 N 576.046 1.5621 4.36065 0
M  V30 5854 C 576.781 2.04131 5.35834 0
M  V30 5855 N 576.277 2.60177 6.4209 0
M  V30 5856 N 578.07 1.94845 5.27249 0
M  V30 5857 H 570.221 1.58867 1.40979 0
M  V30 5858 H 572.484 0.666024 0.674623 0
M  V30 5859 H 572.19 2.01473 2.88273 0
M  V30 5860 H 572.064 0.488921 3.74018 0
M  V30 5861 H 574.451 -0.109209 2.94898 0
M  V30 5862 H 574.532 1.44643 2.10979 0
M  V30 5863 H 574.176 2.64166 4.33796 0
M  V30 5864 H 574.106 1.06159 5.15789 0
M  V30 5865 H 576.597 1.15276 3.59889 0
M  V30 5866 H 576.91 2.94513 7.1448 0
M  V30 5867 H 575.255 2.64221 6.42816 0
M  V30 5868 H 578.446 1.50792 4.43147 0
M  V30 5869 H 578.619 2.32504 6.04852 0
M  V30 5870 N 572.025 -1.5352 0.356285 0
M  V30 5871 C 573.272 -2.01117 -0.236303 0
M  V30 5872 C 573.6 -1.24381 -1.49531 0
M  V30 5873 O 572.855 -0.323057 -1.93015 0
M  V30 5874 C 573.154 -3.52607 -0.583369 0
M  V30 5875 C 572.82 -4.47151 0.58023 0
M  V30 5876 C 571.482 -4.72718 0.899528 0
M  V30 5877 C 573.834 -5.03137 1.36024 0
M  V30 5878 C 571.162 -5.51523 2.00098 0
M  V30 5879 C 573.514 -5.83145 2.45204 0
M  V30 5880 C 572.178 -6.07001 2.77679 0
M  V30 5881 H 571.448 -0.735938 -0.0864695 0
M  V30 5882 H 574.095 -1.85209 0.48683 0
M  V30 5883 H 572.4 -3.66413 -1.38739 0
M  V30 5884 H 574.097 -3.86901 -1.05397 0
M  V30 5885 H 570.687 -4.27394 0.321322 0
M  V30 5886 H 574.871 -4.83339 1.12682 0
M  V30 5887 H 570.127 -5.68229 2.25668 0
M  V30 5888 H 574.301 -6.25537 3.06067 0
M  V30 5889 H 571.928 -6.67851 3.63151 0
M  V30 5890 N 573.503 -0.0852151 -1.57369 0
M  V30 5891 C 574.752 0.580443 -1.93168 0
M  V30 5892 C 575.065 1.6995 -0.968319 0
M  V30 5893 O 576.271 2.42564 -1.21963 0
M  V30 5894 C 574.727 1.08386 -3.43192 0
M  V30 5895 C 574.335 -0.00491388 -4.48 0
M  V30 5896 C 576.079 1.72281 -3.87968 0
M  V30 5897 C 573.986 0.513299 -5.89168 0
M  V30 5898 H 572.916 0.22059 -0.72101 0
M  V30 5899 H 575.567 -0.159621 -1.82804 0
M  V30 5900 H 573.949 1.8773 -3.48674 0
M  V30 5901 H 575.123 -0.780032 -4.5415 0
M  V30 5902 H 573.438 -0.548453 -4.12772 0
M  V30 5903 H 576.035 2.12108 -4.9083 0
M  V30 5904 H 576.378 2.58811 -3.26071 0
M  V30 5905 H 576.911 0.995359 -3.85146 0
M  V30 5906 H 573.65 -0.315153 -6.54742 0
M  V30 5907 H 573.17 1.25564 -5.8651 0
M  V30 5908 H 574.849 0.985433 -6.39451 0
M  V30 5909 N 574.981 1.5647 0.188427 0
M  V30 5910 C 576.23 1.80207 0.905995 0
M  V30 5911 C 576.543 0.659579 1.84144 0
M  V30 5912 O 577.749 0.781431 2.60011 0
M  V30 5913 C 576.205 3.19255 1.66145 0
M  V30 5914 C 575.813 4.41324 0.770504 0
M  V30 5915 C 577.557 3.52298 2.36826 0
M  V30 5916 C 575.464 5.71394 1.52521 0
M  V30 5917 H 574.394 0.671953 0.342045 0
M  V30 5918 H 577.045 1.82808 0.159164 0
M  V30 5919 H 575.427 3.10922 2.45242 0
M  V30 5920 H 576.601 4.60797 0.0177261 0
M  V30 5921 H 574.916 4.16035 0.174199 0
M  V30 5922 H 577.513 4.46715 2.93854 0
M  V30 5923 H 577.856 2.76359 3.11338 0
M  V30 5924 H 578.389 3.62108 1.6469 0
M  V30 5925 H 575.128 6.50316 0.82275 0
M  V30 5926 H 574.648 5.55928 2.25175 0
M  V30 5927 H 576.327 6.12747 2.07725 0
M  V30 5928 N 576.459 -0.456382 1.50847 0
M  V30 5929 C 577.707 -1.20497 1.62249 0
M  V30 5930 C 578.028 -1.92156 0.331839 0
M  V30 5931 O 577.298 -1.84751 -0.651443 0
M  V30 5932 H 575.878 -0.447775 0.597918 0
M  V30 5933 H 578.54 -0.525099 1.87693 0
M  V30 5934 H 577.636 -1.94492 2.44089 0
M  V30 5935 N 577.937 -1.40673 -0.710563 0
M  V30 5936 C 578.847 -1.43663 -1.85467 0
M  V30 5937 C 579.863 -0.328721 -1.70867 0
M  V30 5938 O 581.039 -0.574098 -1.93044 0
M  V30 5939 C 578.104 -1.30226 -3.21313 0
M  V30 5940 C 577.165 -2.51204 -3.48131 0
M  V30 5941 C 576.398 -2.38398 -4.77495 0
M  V30 5942 O 576.621 -1.40048 -5.5294 0
M  V30 5943 O 575.555 -3.2787 -5.04762 0
M  V30 5944 H 579.381 -2.40156 -1.859 0
M  V30 5945 H 576.966 -1.22049 -0.861652 0
M  V30 5946 H 578.848 -1.2496 -4.02446 0
M  V30 5947 H 577.523 -0.368419 -3.21597 0
M  V30 5948 H 576.43 -2.62048 -2.66987 0
M  V30 5949 H 577.763 -3.43366 -3.52648 0
M  V30 5950 N 579.415 0.9433 -1.26252 0
M  V30 5951 C 580.64 1.72898 -1.14547 0
M  V30 5952 C 581.065 1.85761 0.295743 0
M  V30 5953 O 580.423 1.3463 1.21427 0
M  V30 5954 C 580.471 3.11471 -1.8171 0
M  V30 5955 O 579.575 3.97336 -1.10445 0
M  V30 5956 H 578.916 0.530555 -0.399259 0
M  V30 5957 H 581.446 1.18159 -1.67032 0
M  V30 5958 H 581.456 3.61872 -1.88449 0
M  V30 5959 H 580.131 3.01425 -2.86558 0
M  V30 5960 H 578.708 3.55788 -1.11666 0
M  V30 5961 N 580.893 1.08022 1.14757 0
M  V30 5962 C 581.825 0.664566 2.19354 0
M  V30 5963 C 582.838 -0.286374 1.60261 0
M  V30 5964 O 584.027 -0.0746362 1.78344 0
M  V30 5965 C 581.127 -0.0434634 3.38872 0
M  V30 5966 C 580.3 0.925381 4.27499 0
M  V30 5967 C 579.359 0.253398 5.2559 0
M  V30 5968 O 578.385 0.896581 5.62094 0
M  V30 5969 N 579.587 -0.998263 5.71852 0
M  V30 5970 H 582.352 1.56438 2.55631 0
M  V30 5971 H 579.913 0.965788 1.29939 0
M  V30 5972 H 581.905 -0.503857 4.01551 0
M  V30 5973 H 580.475 -0.845321 3.00954 0
M  V30 5974 H 579.695 1.56472 3.61815 0
M  V30 5975 H 580.983 1.58203 4.8358 0
M  V30 5976 H 580.381 -1.54063 5.44317 0
M  V30 5977 H 578.938 -1.40222 6.36538 0
M  V30 5978 N 582.371 -1.3172 0.865308 0
M  V30 5979 C 583.334 -2.26918 0.322627 0
M  V30 5980 C 584.334 -1.52031 -0.523751 0
M  V30 5981 O 585.524 -1.70973 -0.333727 0
M  V30 5982 C 582.656 -3.36558 -0.542338 0
M  V30 5983 H 583.849 -2.76432 1.16298 0
M  V30 5984 H 581.402 -1.42573 0.640512 0
M  V30 5985 H 582.137 -2.92329 -1.40407 0
M  V30 5986 H 581.922 -3.92048 0.0636395 0
M  V30 5987 H 583.412 -4.07465 -0.91446 0
M  V30 5988 N 583.85 -0.624285 -1.44708 0
M  V30 5989 C 585.098 -0.125802 -2.01708 0
M  V30 5990 C 585.418 1.2543 -1.49306 0
M  V30 5991 O 584.689 1.83198 -0.693924 0
M  V30 5992 H 583.269 -0.0435161 -0.745731 0
M  V30 5993 H 585.931 -0.809446 -1.77296 0
M  V30 5994 H 585.027 -0.0882734 -3.11975 0
M  V30 5995 N 585.328 1.53329 -0.364422 0
M  V30 5996 C 586.238 2.29414 0.490552 0
M  V30 5997 C 587.254 1.35335 1.09363 0
M  V30 5998 O 588.43 1.68391 1.10483 0
M  V30 5999 C 585.495 3.06772 1.61529 0
M  V30 6000 C 584.556 4.16516 1.03986 0
M  V30 6001 C 583.789 4.90176 2.111 0
M  V30 6002 O 584.012 4.63687 3.32191 0
M  V30 6003 O 582.946 5.76134 1.74222 0
M  V30 6004 H 586.772 3.03428 -0.12856 0
M  V30 6005 H 584.357 1.48843 -0.128837 0
M  V30 6006 H 586.239 3.55082 2.26924 0
M  V30 6007 H 584.914 2.35596 2.21983 0
M  V30 6008 H 583.821 3.7246 0.349856 0
M  V30 6009 H 585.154 4.89855 0.4799 0
M  V30 6010 N 586.806 0.0935595 1.57322 0
M  V30 6011 C 587.738 -0.895923 2.10964 0
M  V30 6012 C 588.751 -1.24705 1.04654 0
M  V30 6013 O 589.94 -1.20044 1.32105 0
M  V30 6014 C 587.04 -2.20546 2.57318 0
M  V30 6015 C 586.213 -2.0299 3.87445 0
M  V30 6016 C 585.272 -3.17443 4.19662 0
M  V30 6017 O 584.298 -2.91474 4.88909 0
M  V30 6018 N 585.5 -4.43168 3.74943 0
M  V30 6019 H 588.265 -0.437788 2.96485 0
M  V30 6020 H 585.826 -0.0915863 1.61641 0
M  V30 6021 H 587.818 -2.9606 2.75917 0
M  V30 6022 H 586.388 -2.57789 1.76816 0
M  V30 6023 H 585.608 -1.11815 3.78009 0
M  V30 6024 H 586.896 -1.88535 4.7258 0
M  V30 6025 H 586.294 -4.67149 3.19043 0
M  V30 6026 H 584.851 -5.15637 3.987 0
M  V30 6027 N 588.284 -1.56567 -0.180126 0
M  V30 6028 C 589.695 -1.7126 -0.743422 0
M  V30 6029 C 590.046 -0.70263 -1.83187 0
M  V30 6030 O 589.171 0.137856 -2.1596 0
M  V30 6031 C 589.766 -3.10512 -1.35528 0
M  V30 6032 C 588.325 -3.26919 -1.8655 0
M  V30 6033 C 587.472 -2.67213 -0.741099 0
M  V30 6034 H 590.423 -1.58636 0.0451543 0
M  V30 6035 H 590.444 -3.08673 -2.22489 0
M  V30 6036 H 589.956 -3.83997 -0.562862 0
M  V30 6037 H 588.057 -2.58376 -2.68464 0
M  V30 6038 H 588.17 -4.34574 -2.01699 0
M  V30 6039 H 586.534 -2.26788 -1.15927 0
M  V30 6040 H 587.317 -3.43277 0.0393291 0
M  V30 6041 N 589.762 0.448376 -1.51087 0
M  V30 6042 C 590.99 1.22143 -1.66999 0
M  V30 6043 C 591.405 1.85283 -0.362699 0
M  V30 6044 O 590.762 1.70236 0.65772 0
M  V30 6045 C 590.813 2.31357 -2.7777 0
M  V30 6046 O 590.534 1.70801 -4.03434 0
M  V30 6047 C 592.035 3.21836 -3.04855 0
M  V30 6048 H 589.255 0.368558 -0.560719 0
M  V30 6049 H 591.799 0.532618 -1.97442 0
M  V30 6050 H 589.954 2.95973 -2.49958 0
M  V30 6051 H 590.368 2.42895 -4.64868 0
M  V30 6052 H 591.842 3.94627 -3.85971 0
M  V30 6053 H 592.319 3.81949 -2.16821 0
M  V30 6054 H 592.925 2.62933 -3.34285 0
M  V30 6055 N 591.24 1.41047 0.703093 0
M  V30 6056 C 592.172 1.38228 1.82827 0
M  V30 6057 C 593.185 0.285637 1.60275 0
M  V30 6058 O 594.374 0.54685 1.69917 0
M  V30 6059 C 591.474 1.13136 3.19458 0
M  V30 6060 C 590.647 2.34695 3.69103 0
M  V30 6061 C 589.706 2.05574 4.84382 0
M  V30 6062 O 588.732 2.78549 4.96386 0
M  V30 6063 N 589.934 1.04135 5.71083 0
M  V30 6064 H 592.699 2.35203 1.85741 0
M  V30 6065 H 590.26 1.35562 0.885125 0
M  V30 6066 H 592.252 0.916183 3.94193 0
M  V30 6067 H 590.822 0.247836 3.11616 0
M  V30 6068 H 590.042 2.71963 2.85359 0
M  V30 6069 H 591.33 3.15705 3.99009 0
M  V30 6070 H 590.728 0.43722 5.64008 0
M  V30 6071 H 589.285 0.886078 6.45749 0
M  V30 6072 N 592.718 -0.936591 1.26751 0
M  V30 6073 C 593.946 -1.71758 1.15355 0
M  V30 6074 C 594.361 -1.86549 -0.290683 0
M  V30 6075 O 593.718 -1.37616 -1.19868 0
M  V30 6076 C 593.769 -3.12193 1.82258 0
M  V30 6077 O 593.49 -2.98105 3.21038 0
M  V30 6078 C 594.991 -4.06485 1.76875 0
M  V30 6079 H 592.211 -0.537636 0.401483 0
M  V30 6080 H 594.755 -1.17382 1.67457 0
M  V30 6081 H 592.91 -3.63456 1.34083 0
M  V30 6082 H 593.324 -3.86824 3.54214 0
M  V30 6083 H 594.798 -5.02569 2.28316 0
M  V30 6084 H 595.275 -4.32986 0.736216 0
M  V30 6085 H 595.881 -3.61144 2.24623 0
M  V30 6086 N 594.196 -1.08629 -1.14182 0
M  V30 6087 C 595.442 -0.818556 -1.85546 0
M  V30 6088 C 595.775 0.654076 -1.82854 0
M  V30 6089 O 595.05 1.48099 -1.26083 0
M  V30 6090 C 595.333 -1.34397 -3.3408 0
M  V30 6091 C 595.186 -2.8821 -3.45333 0
M  V30 6092 C 596.505 -0.971069 -4.29253 0
M  V30 6093 H 593.624 -0.298821 -0.673702 0
M  V30 6094 H 596.266 -1.34629 -1.34071 0
M  V30 6095 H 594.416 -0.895064 -3.78049 0
M  V30 6096 H 596.088 -3.41488 -3.10134 0
M  V30 6097 H 594.331 -3.25756 -2.86471 0
M  V30 6098 H 595.002 -3.20047 -4.49749 0
M  V30 6099 H 597.478 -1.35809 -3.93313 0
M  V30 6100 H 596.354 -1.36586 -5.31635 0
M  V30 6101 H 596.615 0.121659 -4.41933 0
M  V30 6102 N 595.674 1.31259 -0.872281 0
M  V30 6103 C 596.607 2.26544 -0.274394 0
M  V30 6104 C 597.585 1.51213 0.597776 0
M  V30 6105 O 598.769 1.80277 0.550687 0
M  V30 6106 C 595.896 3.33139 0.611256 0
M  V30 6107 C 594.942 4.26077 -0.189876 0
M  V30 6108 S 595.775 5.11971 -1.56989 0
M  V30 6109 C 596.931 6.2208 -0.690427 0
M  V30 6110 H 597.164 2.76908 -1.0821 0
M  V30 6111 H 594.697 1.3906 -0.670939 0
M  V30 6112 H 596.655 3.95024 1.11654 0
M  V30 6113 H 595.316 2.81525 1.39294 0
M  V30 6114 H 594.509 5.01657 0.485433 0
M  V30 6115 H 594.111 3.68701 -0.627339 0
M  V30 6116 H 596.403 6.77429 0.098001 0
M  V30 6117 H 597.346 6.93768 -1.41742 0
M  V30 6118 H 597.754 5.63915 -0.256953 0
M  V30 6119 N 597.152 0.631951 1.44375 0
M  V30 6120 C 598.563 0.219036 1.85411 0
M  V30 6121 C 598.914 -1.22974 1.52879 0
M  V30 6122 O 598.039 -1.93579 0.967266 0
M  V30 6123 C 598.634 0.39075 3.36539 0
M  V30 6124 C 597.193 0.0323351 3.76386 0
M  V30 6125 C 596.34 0.703744 2.68221 0
M  V30 6126 H 599.291 0.837056 1.3483 0
M  V30 6127 H 599.312 -0.370056 3.78696 0
M  V30 6128 H 598.824 1.44527 3.60185 0
M  V30 6129 H 596.925 -1.02042 3.58355 0
M  V30 6130 H 597.038 0.442969 4.77048 0
M  V30 6131 H 595.402 0.138974 2.54321 0
M  V30 6132 H 596.185 1.76088 2.947 0
M  V30 6133 N 598.631 -1.53133 0.372548 0
M  V30 6134 C 599.879 -2.00958 -0.214534 0
M  V30 6135 C 600.2 -1.26135 -1.48711 0
M  V30 6136 O 599.47 -0.376597 -1.92246 0
M  V30 6137 H 598.05 -0.742456 -0.0822664 0
M  V30 6138 H 600.712 -1.88367 0.500385 0
M  V30 6139 H 599.808 -3.09031 -0.436605 0
M  V30 6140 N 600.109 -0.101901 -1.5727 0
M  V30 6141 C 601.041 0.884723 -2.11436 0
M  V30 6142 C 602.054 1.24149 -1.05314 0
M  V30 6143 O 603.243 1.19341 -1.3274 0
M  V30 6144 C 600.343 2.19179 -2.58484 0
M  V30 6145 C 599.516 2.00933 -3.88516 0
M  V30 6146 C 598.575 3.15213 -4.2134 0
M  V30 6147 O 597.601 2.88877 -4.90448 0
M  V30 6148 N 598.803 4.41174 -3.77288 0
M  V30 6149 H 601.568 0.422058 -2.96713 0
M  V30 6150 H 599.129 0.0830128 -1.61687 0
M  V30 6151 H 601.121 2.94593 -2.77484 0
M  V30 6152 H 599.691 2.56847 -1.7818 0
M  V30 6153 H 598.911 1.09809 -3.78597 0
M  V30 6154 H 600.199 1.86026 -4.73573 0
M  V30 6155 H 599.597 4.6545 -3.21516 0
M  V30 6156 H 598.154 5.13515 -4.01429 0
M  V30 6157 N 601.587 1.56661 0.17182 0
M  V30 6158 C 602.833 1.82235 0.889845 0
M  V30 6159 C 603.166 0.679673 1.81918 0
M  V30 6160 O 602.441 -0.318404 1.91876 0
M  V30 6161 C 602.724 3.18195 1.68595 0
M  V30 6162 C 602.577 4.42989 0.779773 0
M  V30 6163 C 603.896 3.5109 2.65375 0
M  V30 6164 H 601.015 0.66291 0.322056 0
M  V30 6165 H 603.657 1.89358 0.15608 0
M  V30 6166 H 601.807 3.12253 2.3115 0
M  V30 6167 H 603.479 4.60997 0.16714 0
M  V30 6168 H 601.722 4.33711 0.0877964 0
M  V30 6169 H 602.393 5.3467 1.3723 0
M  V30 6170 H 604.869 3.57482 2.12946 0
M  V30 6171 H 603.745 4.47298 3.18144 0
M  V30 6172 H 604.006 2.75768 3.45549 0
M  V30 6173 N 603.065 -0.440357 1.51323 0
M  V30 6174 C 603.998 -1.55414 1.67098 0
M  V30 6175 C 604.976 -1.54108 0.518599 0
M  V30 6176 O 606.16 -1.7328 0.742054 0
M  V30 6177 C 603.287 -2.93996 1.68179 0
M  V30 6178 C 602.333 -3.13338 2.89347 0
M  V30 6179 S 603.166 -2.89957 4.50206 0
M  V30 6180 C 604.322 -4.30826 4.54027 0
M  V30 6181 H 604.555 -1.41798 2.61306 0
M  V30 6182 H 602.088 -0.629841 1.40969 0
M  V30 6183 H 604.046 -3.73878 1.69487 0
M  V30 6184 H 602.707 -3.04976 0.751542 0
M  V30 6185 H 601.9 -4.14652 2.86495 0
M  V30 6186 H 601.502 -2.41276 2.85766 0
M  V30 6187 H 603.794 -5.23977 4.29481 0
M  V30 6188 H 604.737 -4.38712 5.55822 0
M  V30 6189 H 605.145 -4.1434 3.83384 0
M  V30 6190 N 604.543 -1.41418 -0.695603 0
M  V30 6191 C 605.959 -1.23887 -1.00619 0
M  V30 6192 C 606.159 -0.128206 -2.01092 0
M  V30 6193 O 605.215 0.507408 -2.47349 0
M  V30 6194 C 606.528 -2.58816 -1.53083 0
M  V30 6195 C 608.076 -2.65998 -1.64967 0
M  V30 6196 C 608.551 -4.01244 -2.20833 0
M  V30 6197 N 610.042 -4.0309 -2.28194 0
M  V30 6198 C 610.777 -5.04539 -2.72448 0
M  V30 6199 N 610.273 -6.16378 -3.16306 0
M  V30 6200 N 612.066 -4.91901 -2.72011 0
M  V30 6201 H 604.217 -2.12379 -0.0300061 0
M  V30 6202 H 606.48 -0.944958 -0.0758797 0
M  V30 6203 H 606.186 -3.40842 -0.867147 0
M  V30 6204 H 606.06 -2.81299 -2.51298 0
M  V30 6205 H 608.447 -1.84331 -2.30448 0
M  V30 6206 H 608.528 -2.47325 -0.652982 0
M  V30 6207 H 608.172 -4.83359 -1.55968 0
M  V30 6208 H 608.102 -4.17257 -3.21254 0
M  V30 6209 H 610.593 -3.22341 -1.97242 0
M  V30 6210 H 610.906 -6.89658 -3.487 0
M  V30 6211 H 609.251 -6.19914 -3.14215 0
M  V30 6212 H 612.442 -4.03613 -2.37095 0
M  V30 6213 H 612.615 -5.71102 -3.06181 0
M  V30 6214 N 606.021 0.929856 -1.27246 0
M  V30 6215 C 607.267 1.6798 -1.13625 0
M  V30 6216 C 607.6 1.91586 0.317589 0
M  V30 6217 O 606.875 1.50467 1.23247 0
M  V30 6218 C 607.158 3.04766 -1.91806 0
M  V30 6219 C 607.011 2.88415 -3.45162 0
M  V30 6220 C 608.33 4.05063 -1.72082 0
M  V30 6221 H 605.449 0.609632 -0.414147 0
M  V30 6222 H 608.091 1.0792 -1.56376 0
M  V30 6223 H 606.241 3.56034 -1.55474 0
M  V30 6224 H 607.913 2.44282 -3.91311 0
M  V30 6225 H 606.156 2.23802 -3.71611 0
M  V30 6226 H 606.827 3.85482 -3.95105 0
M  V30 6227 H 609.303 3.62798 -2.03757 0
M  V30 6228 H 608.179 4.98765 -2.29182 0
M  V30 6229 H 608.44 4.37021 -0.668206 0
M  V30 6230 N 607.499 1.09233 1.13605 0
M  V30 6231 C 608.727 0.848908 1.88683 0
M  V30 6232 C 609.142 -0.599667 1.79024 0
M  V30 6233 O 608.499 -1.41265 1.15544 0
M  V30 6234 C 608.55 1.27273 3.38355 0
M  V30 6235 O 608.271 2.66449 3.47759 0
M  V30 6236 C 609.772 1.0614 4.30406 0
M  V30 6237 H 606.992 0.305549 0.597395 0
M  V30 6238 H 609.536 1.4538 1.43823 0
M  V30 6239 H 607.691 0.711776 3.80805 0
M  V30 6240 H 608.105 2.84264 4.40788 0
M  V30 6241 H 609.579 1.40725 5.33761 0
M  V30 6242 H 610.056 -0.000960332 4.392 0
M  V30 6243 H 610.662 1.60821 3.93722 0
M  V30 6244 N 608.977 -1.30795 0.87923 0
M  V30 6245 C 610.205 -2.00527 0.509548 0
M  V30 6246 C 610.62 -1.65944 -0.90045 0
M  V30 6247 O 609.977 -0.893525 -1.5913 0
M  V30 6248 C 610.028 -3.55276 0.667943 0
M  V30 6249 O 609.749 -3.88625 2.02242 0
M  V30 6250 C 611.25 -4.4228 0.300494 0
M  V30 6251 H 608.47 -0.641261 0.197549 0
M  V30 6252 H 611.014 -1.66813 1.18295 0
M  V30 6253 H 609.169 -3.87377 0.0419843 0
M  V30 6254 H 609.583 -4.83334 2.03688 0
M  V30 6255 H 611.057 -5.50061 0.462242 0
M  V30 6256 H 611.534 -4.32556 -0.76106 0
M  V30 6257 H 612.14 -4.15613 0.902536 0
M  V30 6258 N 610.455 -0.639598 -1.44038 0
M  V30 6259 C 611.703 -0.147188 -2.01563 0
M  V30 6260 C 612.024 1.2384 -1.50628 0
M  V30 6261 O 611.294 1.82452 -0.713316 0
M  V30 6262 H 609.874 -0.0514231 -0.745228 0
M  V30 6263 H 612.536 -0.828205 -1.76428 0
M  V30 6264 H 611.632 -0.121358 -3.11864 0
M  V30 6265 N 611.933 1.52934 -0.380664 0
M  V30 6266 C 612.896 2.24809 0.446473 0
M  V30 6267 C 613.896 1.26133 0.997347 0
M  V30 6268 O 615.086 1.50297 0.880714 0
M  V30 6269 C 612.218 2.99649 1.62553 0
M  V30 6270 H 613.411 2.99343 -0.182677 0
M  V30 6271 H 610.964 1.55736 -0.132618 0
M  V30 6272 H 611.699 2.29395 2.29235 0
M  V30 6273 H 611.484 3.72066 1.23732 0
M  V30 6274 H 612.974 3.54246 2.21133 0
M  V30 6275 N 613.412 0.11024 1.57214 0
M  V30 6276 C 614.823 -0.416527 1.81994 0
M  V30 6277 C 615.174 -1.67183 1.02686 0
M  V30 6278 O 614.299 -2.14823 0.260782 0
M  V30 6279 C 614.894 -0.762466 3.30109 0
M  V30 6280 C 613.453 -1.23391 3.556 0
M  V30 6281 C 612.6 -0.238166 2.76275 0
M  V30 6282 H 615.551 0.335491 1.55113 0
M  V30 6283 H 615.572 -1.62068 3.44259 0
M  V30 6284 H 615.084 0.151346 3.87805 0
M  V30 6285 H 613.185 -2.16492 3.03253 0
M  V30 6286 H 613.298 -1.18528 4.64207 0
M  V30 6287 H 611.662 -0.723421 2.4421 0
M  V30 6288 H 612.445 0.668591 3.36727 0
M  V30 6289 N 614.89 -1.56749 -0.16351 0
M  V30 6290 C 616.139 -1.81626 -0.877211 0
M  V30 6291 C 616.452 -0.688791 -1.83071 0
M  V30 6292 O 617.658 -0.822697 -2.58735 0
M  V30 6293 C 616.114 -3.21858 -1.61045 0
M  V30 6294 C 615.722 -4.42494 -0.700195 0
M  V30 6295 C 617.466 -3.56021 -2.31192 0
M  V30 6296 C 615.373 -5.73748 -1.43412 0
M  V30 6297 H 614.303 -0.67731 -0.331312 0
M  V30 6298 H 616.954 -1.83039 -0.13006 0
M  V30 6299 H 615.336 -3.14784 -2.40264 0
M  V30 6300 H 616.51 -4.60766 0.0555849 0
M  V30 6301 H 614.825 -4.1626 -0.10799 0
M  V30 6302 H 617.422 -4.51333 -2.8671 0
M  V30 6303 H 617.765 -2.81277 -3.06902 0
M  V30 6304 H 618.298 -3.64682 -1.58909 0
M  V30 6305 H 615.037 -6.51543 -0.719186 0
M  V30 6306 H 614.557 -5.5944 -2.16302 0
M  V30 6307 H 616.236 -6.15975 -1.9795 0
M  V30 6308 N 616.368 0.432326 -1.51554 0
M  V30 6309 C 617.779 1.01202 -1.56892 0
M  V30 6310 C 618.13 1.92175 -0.395394 0
M  V30 6311 O 617.255 2.10844 0.487198 0
M  V30 6312 C 617.85 1.84217 -2.8434 0
M  V30 6313 C 616.409 2.37228 -2.92233 0
M  V30 6314 C 615.556 1.16576 -2.51606 0
M  V30 6315 H 618.507 0.213407 -1.57259 0
M  V30 6316 H 618.528 2.69721 -2.68385 0
M  V30 6317 H 618.04 1.17979 -3.69733 0
M  V30 6318 H 616.141 3.06905 -2.11282 0
M  V30 6319 H 616.254 2.69682 -3.95991 0
M  V30 6320 H 614.618 1.51263 -2.04919 0
M  V30 6321 H 615.401 0.519404 -3.39348 0
M  V30 6322 N 617.846 1.41785 0.688094 0
M  V30 6323 C 619.086 1.43018 1.46032 0
M  V30 6324 C 619.45 0.0402632 1.91958 0
M  V30 6325 O 620.651 -0.0726425 2.68702 0
M  V30 6326 C 618.922 2.4151 2.63453 0
M  V30 6327 S 620.481 2.61335 3.5249 0
M  V30 6328 H 617.299 0.506546 0.498931 0
M  V30 6329 H 619.901 1.78283 0.80221 0
M  V30 6330 H 618.605 3.41286 2.27929 0
M  V30 6331 H 618.136 2.07624 3.34149 0
M  V30 6332 H 620.151 1.88637 4.58945 0
M  V30 6333 N 619.324 -0.923095 1.27737 0
M  V30 6334 C 620.572 -1.66797 1.14119 0
M  V30 6335 C 620.893 -1.92479 -0.312541 0
M  V30 6336 O 620.163 -1.53432 -1.218 0
M  V30 6337 H 618.743 -0.618196 0.419336 0
M  V30 6338 H 621.405 -1.10815 1.60331 0
M  V30 6339 H 620.501 -2.63424 1.67374 0
M  V30 6340 N 620.802 -1.09834 -1.13024 0
M  V30 6341 C 621.765 -0.745058 -2.16752 0
M  V30 6342 C 622.765 0.227435 -1.59183 0
M  V30 6343 O 623.955 0.0050786 -1.74199 0
M  V30 6344 C 621.087 -0.102543 -3.40746 0
M  V30 6345 H 622.28 -1.66375 -2.49518 0
M  V30 6346 H 619.833 -0.898061 -1.27924 0
M  V30 6347 H 620.568 0.827177 -3.13573 0
M  V30 6348 H 620.353 -0.80235 -3.83803 0
M  V30 6349 H 621.843 0.129082 -4.174 0
M  V30 6350 N 622.28 1.30327 -0.886154 0
M  V30 6351 C 623.557 1.90922 -0.425217 0
M  V30 6352 C 623.937 1.80533 1.09413 0
M  V30 6353 O 623.285 1.2233 1.92996 0
M  V30 6354 C 623.495 3.36529 -0.924638 0
M  V30 6355 C 624.843 4.13598 -0.960305 0
M  V30 6356 O 625.867 3.45377 -0.871382 0
M  V30 6357 O 624.726 5.35482 -1.09184 0
M  V30 6358 H 621.82 0.81668 -0.130238 0
M  V30 6359 H 624.366 1.38886 -0.975132 0
M  V30 6360 H 623.138 3.38181 -1.96849 0
M  V30 6361 H 622.761 3.96021 -0.353955 0
M  V30 6362 N 623.758 0.647228 1.43697 0
M  V30 6363 C 624.721 -0.0385101 2.29168 0
M  V30 6364 C 625.721 -0.756487 1.41894 0
M  V30 6365 O 626.911 -0.598641 1.63591 0
M  V30 6366 C 624.043 -1.06524 3.23829 0
M  V30 6367 H 625.236 0.713445 2.9129 0
M  V30 6368 H 622.789 0.408153 1.50877 0
M  V30 6369 H 623.524 -1.84664 2.66589 0
M  V30 6370 H 623.309 -0.554147 3.88164 0
M  V30 6371 H 624.799 -1.54432 3.87996 0
M  V30 6372 N 625.236 -1.5273 0.388769 0
M  V30 6373 C 626.482 -2.01871 -0.193877 0
M  V30 6374 C 626.815 -1.27475 -1.46505 0
M  V30 6375 O 626.09 -0.375063 -1.90849 0
M  V30 6376 C 626.373 -3.5712 -0.462336 0
M  V30 6377 C 626.226 -4.42186 0.824091 0
M  V30 6378 C 627.545 -4.21881 -1.25319 0
M  V30 6379 H 624.664 -0.733764 -0.0689899 0
M  V30 6380 H 627.306 -1.82796 0.518231 0
M  V30 6381 H 625.456 -3.73504 -1.06896 0
M  V30 6382 H 627.128 -4.37554 1.46096 0
M  V30 6383 H 625.371 -4.09219 1.43952 0
M  V30 6384 H 626.042 -5.48828 0.590905 0
M  V30 6385 H 628.518 -4.0947 -0.73981 0
M  V30 6386 H 627.394 -5.30487 -1.40977 0
M  V30 6387 H 627.655 -3.79478 -2.26824 0
M  V30 6388 N 626.714 -0.118576 -1.57153 0
M  V30 6389 C 627.96 0.540326 -1.95469 0
M  V30 6390 C 628.293 1.66356 -1.00196 0
M  V30 6391 O 627.568 1.94461 -0.039104 0
M  V30 6392 C 627.851 1.07342 -3.43729 0
M  V30 6393 C 627.704 -0.0463732 -4.49776 0
M  V30 6394 C 629.023 1.96442 -3.93826 0
M  V30 6395 H 626.142 0.19494 -0.710751 0
M  V30 6396 H 628.784 -0.19405 -1.89006 0
M  V30 6397 H 626.934 1.69925 -3.49368 0
M  V30 6398 H 628.606 -0.681648 -4.56236 0
M  V30 6399 H 626.849 -0.709574 -4.27957 0
M  V30 6400 H 627.52 0.367856 -5.50773 0
M  V30 6401 H 629.996 1.43731 -3.90488 0
M  V30 6402 H 628.872 2.3066 -4.98084 0
M  V30 6403 H 629.133 2.89077 -3.34495 0
M  V30 6404 N 628.193 1.56834 0.155195 0
M  V30 6405 C 629.125 1.94235 1.21677 0
M  V30 6406 C 630.138 0.83724 1.39621 0
M  V30 6407 O 631.327 1.11567 1.39338 0
M  V30 6408 C 628.427 2.19402 2.58294 0
M  V30 6409 C 627.6 3.50671 2.61436 0
M  V30 6410 C 626.659 3.64475 3.79532 0
M  V30 6411 O 625.685 4.36945 3.64784 0
M  V30 6412 N 626.887 3.00526 4.96653 0
M  V30 6413 H 629.652 2.85901 0.898932 0
M  V30 6414 H 627.213 1.58185 0.34483 0
M  V30 6415 H 629.205 2.25886 3.35794 0
M  V30 6416 H 627.775 1.34042 2.82403 0
M  V30 6417 H 626.995 3.55702 1.69912 0
M  V30 6418 H 628.283 4.3702 2.60559 0
M  V30 6419 H 627.681 2.41549 5.11538 0
M  V30 6420 H 626.238 3.12583 5.71958 0
M  V30 6421 N 629.671 -0.424282 1.51781 0
M  V30 6422 C 630.917 -1.17434 1.6534 0
M  V30 6423 C 631.25 -1.90549 0.374806 0
M  V30 6424 O 630.525 -1.84145 -0.626179 0
M  V30 6425 C 630.808 -2.18093 2.86544 0
M  V30 6426 C 630.661 -1.48975 4.24413 0
M  V30 6427 C 631.98 -3.18934 3.03264 0
M  V30 6428 H 629.099 -0.425566 0.601716 0
M  V30 6429 H 631.741 -0.461921 1.84299 0
M  V30 6430 H 629.891 -2.78849 2.7051 0
M  V30 6431 H 631.563 -0.914551 4.52143 0
M  V30 6432 H 629.806 -0.791893 4.26511 0
M  V30 6433 H 630.477 -2.22347 5.05238 0
M  V30 6434 H 632.953 -2.68243 3.18096 0
M  V30 6435 H 631.829 -3.86645 3.89611 0
M  V30 6436 H 632.09 -3.85793 2.15908 0
M  V30 6437 N 631.149 -1.42148 -0.680565 0
M  V30 6438 C 632.059 -1.47565 -1.82378 0
M  V30 6439 C 633.075 -0.36489 -1.70131 0
M  V30 6440 O 634.251 -0.614916 -1.91783 0
M  V30 6441 C 631.316 -1.37013 -3.18478 0
M  V30 6442 C 630.377 -2.58532 -3.42724 0
M  V30 6443 C 629.61 -2.48473 -4.72331 0
M  V30 6444 O 629.833 -1.51745 -5.49845 0
M  V30 6445 O 628.767 -3.38503 -4.97694 0
M  V30 6446 H 632.593 -2.44045 -1.80764 0
M  V30 6447 H 630.178 -1.23849 -0.835569 0
M  V30 6448 H 632.06 -1.33468 -3.99705 0
M  V30 6449 H 630.735 -0.436552 -3.20743 0
M  V30 6450 H 629.642 -2.67652 -2.61368 0
M  V30 6451 H 630.975 -3.50769 -3.45286 0
M  V30 6452 N 632.627 0.916307 -1.28225 0
M  V30 6453 C 633.904 1.64429 -1.05936 0
M  V30 6454 C 634.284 2.07234 0.402139 0
M  V30 6455 O 633.632 1.81535 1.3877 0
M  V30 6456 C 633.842 2.83773 -2.03159 0
M  V30 6457 C 635.19 3.54852 -2.33164 0
M  V30 6458 O 636.214 2.93918 -2.01223 0
M  V30 6459 O 635.073 4.64663 -2.87664 0
M  V30 6460 H 632.167 0.721221 -0.404683 0
M  V30 6461 H 634.713 0.965838 -1.39534 0
M  V30 6462 H 633.485 2.49217 -3.01673 0
M  V30 6463 H 633.108 3.59333 -1.70192 0
M  V30 6464 N 634.105 1.10431 1.1244 0
M  V30 6465 C 635.333 0.868872 1.87772 0
M  V30 6466 C 635.748 -0.580645 1.7965 0
M  V30 6467 O 635.105 -1.40031 1.17036 0
M  V30 6468 C 635.156 1.30855 3.36986 0
M  V30 6469 O 634.877 2.70123 3.44914 0
M  V30 6470 C 636.378 1.107 4.29256 0
M  V30 6471 H 633.598 0.311868 0.59412 0
M  V30 6472 H 636.142 1.46897 1.42273 0
M  V30 6473 H 634.297 0.752126 3.80029 0
M  V30 6474 H 634.711 2.88923 4.37748 0
M  V30 6475 H 636.185 1.46378 5.32238 0
M  V30 6476 H 636.662 0.0456228 4.39176 0
M  V30 6477 H 637.268 1.64988 3.91994 0
M  V30 6478 N 635.583 -1.29855 0.893053 0
M  V30 6479 C 636.493 -2.31661 0.370157 0
M  V30 6480 C 637.509 -1.65677 -0.531723 0
M  V30 6481 O 638.685 -1.9691 -0.422902 0
M  V30 6482 C 635.75 -3.44388 -0.399741 0
M  V30 6483 C 634.811 -4.2598 0.532861 0
M  V30 6484 C 634.044 -5.33324 -0.200388 0
M  V30 6485 O 634.267 -5.52305 -1.42531 0
M  V30 6486 O 633.201 -6.00188 0.453668 0
M  V30 6487 H 637.027 -2.78354 1.2146 0
M  V30 6488 H 634.612 -1.34171 0.657153 0
M  V30 6489 H 636.494 -4.13037 -0.835358 0
M  V30 6490 H 635.169 -2.99815 -1.22035 0
M  V30 6491 H 634.076 -3.59998 1.01746 0
M  V30 6492 H 635.409 -4.74178 1.3197 0
M  V30 6493 N 637.061 -0.65484 -1.43351 0
M  V30 6494 C 637.991 0.0221809 -2.33489 0
M  V30 6495 C 638.972 0.810272 -1.49561 0
M  V30 6496 O 640.157 0.771426 -1.78221 0
M  V30 6497 C 637.287 0.988117 -3.32947 0
M  V30 6498 C 636.241 0.310026 -4.26876 0
M  V30 6499 C 635.567 1.38752 -5.16384 0
M  V30 6500 C 636.867 -0.798589 -5.16159 0
M  V30 6501 H 638.561 -0.730571 -2.9035 0
M  V30 6502 H 636.107 -0.352773 -1.39612 0
M  V30 6503 H 638.06 1.47067 -3.94904 0
M  V30 6504 H 636.784 1.77205 -2.74346 0
M  V30 6505 H 635.443 -0.152097 -3.66284 0
M  V30 6506 H 635.091 2.16293 -4.54121 0
M  V30 6507 H 634.791 0.939051 -5.80048 0
M  V30 6508 H 636.315 1.87141 -5.81215 0
M  V30 6509 H 637.729 -0.398126 -5.71916 0
M  V30 6510 H 636.126 -1.17163 -5.88552 0
M  V30 6511 H 637.196 -1.65588 -4.55751 0
M  V30 6512 N 638.539 1.52521 -0.396863 0
M  V30 6513 C 639.788 2.00857 0.184184 0
M  V30 6514 C 640.101 1.28733 1.47265 0
M  V30 6515 O 641.307 1.67821 2.13421 0
M  V30 6516 C 639.763 3.57901 0.378787 0
M  V30 6517 C 639.371 4.38931 -0.896873 0
M  V30 6518 C 641.115 4.14504 0.915789 0
M  V30 6519 C 639.022 5.87591 -0.670133 0
M  V30 6520 H 637.952 0.750496 0.0726055 0
M  V30 6521 H 640.603 1.75965 -0.520425 0
M  V30 6522 H 638.985 3.79072 1.14543 0
M  V30 6523 H 640.159 4.29524 -1.66872 0
M  V30 6524 H 638.474 3.93586 -1.35938 0
M  V30 6525 H 641.071 5.23236 1.10126 0
M  V30 6526 H 641.414 3.71076 1.88701 0
M  V30 6527 H 641.947 3.97253 0.208523 0
M  V30 6528 H 638.686 6.35355 -1.61257 0
M  V30 6529 H 638.206 5.99767 0.0626368 0
M  V30 6530 H 639.885 6.46268 -0.307577 0
M  V30 6531 N 640.017 0.126909 1.57088 0
M  V30 6532 C 641.433 -0.229641 1.57939 0
M  V30 6533 C 641.633 -1.66145 1.1401 0
M  V30 6534 O 640.689 -2.3843 0.831119 0
M  V30 6535 C 642.002 0.0108648 3.00698 0
M  V30 6536 C 643.55 -0.054418 3.12953 0
M  V30 6537 C 644.025 0.158497 4.57726 0
M  V30 6538 N 645.516 0.104735 4.63082 0
M  V30 6539 C 646.251 0.24427 5.72879 0
M  V30 6540 N 645.747 0.440415 6.91399 0
M  V30 6541 N 647.54 0.183286 5.61801 0
M  V30 6542 H 639.691 1.06203 1.83942 0
M  V30 6543 H 641.954 0.418834 0.85046 0
M  V30 6544 H 641.66 1.00102 3.37154 0
M  V30 6545 H 641.534 -0.717512 3.70313 0
M  V30 6546 H 643.921 -1.0351 2.7635 0
M  V30 6547 H 644.002 0.705967 2.45865 0
M  V30 6548 H 643.646 1.13619 4.95028 0
M  V30 6549 H 643.576 -0.62197 5.22914 0
M  V30 6550 H 646.067 -0.0430298 3.77876 0
M  V30 6551 H 646.38 0.537536 7.70928 0
M  V30 6552 H 644.725 0.476488 6.93365 0
M  V30 6553 H 647.916 0.0309561 4.6809 0
M  V30 6554 H 648.089 0.295471 6.47326 0
M  V30 6555 N 641.495 -1.56914 -0.146875 0
M  V30 6556 C 642.405 -2.0154 -1.20079 0
M  V30 6557 C 643.421 -0.930838 -1.47008 0
M  V30 6558 O 644.597 -1.24032 -1.58676 0
M  V30 6559 C 641.662 -2.38715 -2.51428 0
M  V30 6560 C 640.723 -3.6112 -2.32145 0
M  V30 6561 C 639.956 -3.96512 -3.57231 0
M  V30 6562 O 640.179 -3.32566 -4.63418 0
M  V30 6563 O 639.113 -4.89758 -3.49887 0
M  V30 6564 H 642.939 -2.91506 -0.851924 0
M  V30 6565 H 640.524 -1.45106 -0.355607 0
M  V30 6566 H 642.406 -2.63485 -3.28867 0
M  V30 6567 H 641.081 -1.51903 -2.85845 0
M  V30 6568 H 639.988 -3.41536 -1.52656 0
M  V30 6569 H 641.321 -4.48549 -2.02644 0
M  V30 6570 N 642.974 0.416227 -1.52004 0
M  V30 6571 C 644.199 1.19029 -1.69843 0
M  V30 6572 C 644.624 1.83708 -0.404103 0
M  V30 6573 O 643.982 1.69711 0.637787 0
M  V30 6574 C 644.03 2.23439 -2.83032 0
M  V30 6575 O 643.134 3.29419 -2.48106 0
M  V30 6576 H 642.475 0.347785 -0.565634 0
M  V30 6577 H 645.005 0.488871 -1.98674 0
M  V30 6578 H 645.015 2.67884 -3.07737 0
M  V30 6579 H 643.69 1.75745 -3.76944 0
M  V30 6580 H 642.267 2.90303 -2.34048 0
M  V30 6581 N 644.452 1.42507 0.673017 0
M  V30 6582 C 645.729 1.33554 1.42908 0
M  V30 6583 C 646.109 -0.0262211 2.11084 0
M  V30 6584 O 645.457 -1.04181 2.03368 0
M  V30 6585 C 645.667 2.50498 2.43006 0
M  V30 6586 C 647.015 2.92694 3.07596 0
M  V30 6587 O 648.039 2.50401 2.53333 0
M  V30 6588 O 646.898 3.65899 4.05931 0
M  V30 6589 H 643.992 0.526785 0.637516 0
M  V30 6590 H 646.538 1.54518 0.701591 0
M  V30 6591 H 645.31 3.41272 1.9144 0
M  V30 6592 H 644.933 2.3153 3.23233 0
M  V30 6593 N 645.93 -0.909495 1.28709 0
M  V30 6594 C 647.207 -1.63865 1.06806 0
M  V30 6595 C 647.587 -2.07445 -0.391143 0
M  V30 6596 O 646.935 -1.82269 -1.37805 0
M  V30 6597 C 647.145 -2.82692 2.04661 0
M  V30 6598 C 648.493 -3.5361 2.35042 0
M  V30 6599 O 649.517 -2.92847 2.02779 0
M  V30 6600 O 648.376 -4.63131 2.90124 0
M  V30 6601 H 645.47 -0.719065 0.408502 0
M  V30 6602 H 648.016 -0.958424 1.40044 0
M  V30 6603 H 646.788 -2.47614 3.0299 0
M  V30 6604 H 646.411 -3.58426 1.72095 0
M  V30 6605 N 647.408 -1.11026 -1.11852 0
M  V30 6606 C 648.656 -0.854769 -1.83134 0
M  V30 6607 C 648.977 0.621375 -1.84835 0
M  V30 6608 O 648.247 1.45129 -1.31584 0
M  V30 6609 H 646.827 -0.313229 -0.678157 0
M  V30 6610 H 649.489 -1.40178 -1.35411 0
M  V30 6611 H 648.585 -1.22311 -2.87135 0
M  V30 6612 N 648.886 1.2938 -0.899927 0
M  V30 6613 C 650.114 1.99691 -0.541386 0
M  V30 6614 C 650.529 1.67355 0.873936 0
M  V30 6615 O 649.886 0.918728 1.57688 0
M  V30 6616 C 649.937 3.54168 -0.72438 0
M  V30 6617 O 649.658 3.85359 -2.08399 0
M  V30 6618 C 651.159 4.41746 -0.370819 0
M  V30 6619 H 648.379 0.638037 -0.207726 0
M  V30 6620 H 650.923 1.6491 -1.20934 0
M  V30 6621 H 649.078 3.87261 -0.103607 0
M  V30 6622 H 649.492 4.80032 -2.11352 0
M  V30 6623 H 650.966 5.49256 -0.549693 0
M  V30 6624 H 651.443 4.33712 0.692148 0
M  V30 6625 H 652.049 4.14125 -0.968543 0
M  V30 6626 N 650.364 0.662433 1.43002 0
M  V30 6627 C 651.274 -0.0239199 2.34588 0
M  V30 6628 C 652.29 -0.802255 1.54402 0
M  V30 6629 O 653.466 -0.747401 1.87018 0
M  V30 6630 C 650.531 -0.972098 3.32793 0
M  V30 6631 C 649.592 -0.189673 4.28881 0
M  V30 6632 C 648.825 -1.09269 5.22395 0
M  V30 6633 O 649.048 -2.33209 5.20547 0
M  V30 6634 O 647.982 -0.560136 5.99288 0
M  V30 6635 H 651.808 0.730171 2.94792 0
M  V30 6636 H 649.393 0.422635 1.43297 0
M  V30 6637 H 651.275 -1.51676 3.93157 0
M  V30 6638 H 649.95 -1.70626 2.75079 0
M  V30 6639 H 648.857 0.398794 3.71968 0
M  V30 6640 H 650.19 0.50511 4.89601 0
M  V30 6641 N 651.842 -1.52309 0.404946 0
M  V30 6642 C 652.752 -2.30634 -0.429555 0
M  V30 6643 C 653.768 -1.38187 -1.05737 0
M  V30 6644 O 654.944 -1.71261 -1.05979 0
M  V30 6645 C 652.009 -3.10947 -1.53339 0
M  V30 6646 C 651.07 -4.19126 -0.929065 0
M  V30 6647 C 650.303 -4.95601 -1.9803 0
M  V30 6648 O 650.526 -4.72331 -3.1978 0
M  V30 6649 O 649.46 -5.80551 -1.58886 0
M  V30 6650 H 653.286 -3.0298 0.208963 0
M  V30 6651 H 650.871 -1.4845 0.168255 0
M  V30 6652 H 652.753 -3.60974 -2.1743 0
M  V30 6653 H 651.428 -2.41399 -2.15658 0
M  V30 6654 H 650.335 -3.73257 -0.250982 0
M  V30 6655 H 651.668 -4.90955 -0.349855 0
M  V30 6656 N 653.32 -0.135238 -1.57019 0
M  V30 6657 C 654.25 0.805235 -2.19176 0
M  V30 6658 C 655.231 1.2656 -1.13651 0
M  V30 6659 O 656.416 1.32528 -1.4195 0
M  V30 6660 C 653.546 2.04914 -2.80406 0
M  V30 6661 C 652.5 1.72598 -3.91655 0
M  V30 6662 C 651.826 3.04154 -4.39766 0
M  V30 6663 C 653.126 0.981709 -5.12991 0
M  V30 6664 H 654.82 0.287232 -2.98019 0
M  V30 6665 H 652.366 0.136714 -1.4335 0
M  V30 6666 H 654.319 2.71178 -3.22553 0
M  V30 6667 H 653.043 2.59067 -1.98877 0
M  V30 6668 H 651.702 1.08717 -3.50109 0
M  V30 6669 H 651.35 3.56274 -3.55075 0
M  V30 6670 H 651.05 2.83299 -5.14796 0
M  V30 6671 H 652.574 3.71509 -4.84576 0
M  V30 6672 H 653.988 1.5462 -5.52056 0
M  V30 6673 H 652.385 0.873533 -5.93708 0
M  V30 6674 H 653.455 -0.0286887 -4.84892 0
M  V30 6675 N 654.798 1.5699 0.138552 0
M  V30 6676 C 655.708 2.02174 1.19008 0
M  V30 6677 C 656.724 0.938622 1.46512 0
M  V30 6678 O 657.9 1.24872 1.58016 0
M  V30 6679 C 654.965 2.40045 2.50159 0
M  V30 6680 C 654.026 3.62346 2.30226 0
M  V30 6681 C 653.259 3.98401 3.55123 0
M  V30 6682 O 653.482 3.35019 4.61647 0
M  V30 6683 O 652.416 4.91606 3.47285 0
M  V30 6684 H 656.242 2.91954 0.836452 0
M  V30 6685 H 653.827 1.45293 0.347907 0
M  V30 6686 H 655.709 2.65225 3.27465 0
M  V30 6687 H 654.384 1.53417 2.85035 0
M  V30 6688 H 653.291 3.42341 1.50843 0
M  V30 6689 H 654.624 4.49617 2.00262 0
M  V30 6690 N 656.276 -0.40816 1.52223 0
M  V30 6691 C 657.522 -1.15673 1.66576 0
M  V30 6692 C 657.855 -1.90141 0.394996 0
M  V30 6693 O 657.13 -1.84798 -0.606613 0
M  V30 6694 C 657.413 -2.15042 2.88841 0
M  V30 6695 C 657.266 -1.44465 4.25969 0
M  V30 6696 C 658.585 -3.15699 3.0663 0
M  V30 6697 H 655.704 -0.41916 0.606196 0
M  V30 6698 H 658.346 -0.442348 1.84779 0
M  V30 6699 H 656.496 -2.75964 2.73452 0
M  V30 6700 H 658.168 -0.866544 4.53088 0
M  V30 6701 H 656.411 -0.746612 4.27327 0
M  V30 6702 H 657.082 -2.16976 5.07568 0
M  V30 6703 H 659.558 -2.64854 3.20923 0
M  V30 6704 H 658.434 -3.82491 3.9369 0
M  V30 6705 H 658.695 -3.83481 2.19987 0
M  V30 6706 N 657.755 -1.42862 -0.66545 0
M  V30 6707 C 659.171 -1.25993 -0.979687 0
M  V30 6708 C 659.371 -0.170831 -2.00775 0
M  V30 6709 O 658.427 0.454827 -2.4837 0
M  V30 6710 C 659.74 -2.62005 -1.47559 0
M  V30 6711 C 661.288 -2.69437 -1.59288 0
M  V30 6712 C 661.763 -4.05838 -2.12272 0
M  V30 6713 N 663.254 -4.0784 -2.19592 0
M  V30 6714 C 663.989 -5.10205 -2.61684 0
M  V30 6715 N 663.485 -6.22949 -3.03161 0
M  V30 6716 N 665.278 -4.9756 -2.61516 0
M  V30 6717 H 657.429 -2.12395 0.0150493 0
M  V30 6718 H 659.692 -0.946355 -0.0558187 0
M  V30 6719 H 659.398 -3.42605 -0.794654 0
M  V30 6720 H 659.272 -2.86566 -2.45275 0
M  V30 6721 H 661.659 -1.89178 -2.26486 0
M  V30 6722 H 661.74 -2.48655 -0.600374 0
M  V30 6723 H 661.384 -4.86559 -1.4568 0
M  V30 6724 H 661.314 -4.23977 -3.12331 0
M  V30 6725 H 663.805 -3.26452 -1.90361 0
M  V30 6726 H 664.118 -6.96899 -3.33993 0
M  V30 6727 H 662.463 -6.2644 -3.00995 0
M  V30 6728 H 665.654 -4.08551 -2.28481 0
M  V30 6729 H 665.827 -5.77468 -2.93999 0
M  V30 6730 N 659.233 0.902656 -1.29189 0
M  V30 6731 C 660.482 1.6475 -1.16362 0
M  V30 6732 C 660.795 1.93517 0.284682 0
M  V30 6733 O 662.001 2.66192 0.534229 0
M  V30 6734 C 660.457 2.96848 -2.03493 0
M  V30 6735 C 660.065 2.75687 -3.5313 0
M  V30 6736 C 661.809 3.74762 -1.99383 0
M  V30 6737 C 659.716 4.03492 -4.32375 0
M  V30 6738 H 658.646 0.618041 -0.431904 0
M  V30 6739 H 661.297 1.0008 -1.53806 0
M  V30 6740 H 659.679 3.62715 -1.58916 0
M  V30 6741 H 660.853 2.18431 -4.05739 0
M  V30 6742 H 659.168 2.11171 -3.58881 0
M  V30 6743 H 661.765 4.69515 -2.5585 0
M  V30 6744 H 662.108 4.04767 -0.973123 0
M  V30 6745 H 662.641 3.15732 -2.41988 0
M  V30 6746 H 659.38 3.78656 -5.3507 0
M  V30 6747 H 658.9 4.60318 -3.84535 0
M  V30 6748 H 660.579 4.71662 -4.42881 0
M  V30 6749 N 660.711 1.11618 1.11262 0
M  V30 6750 C 661.641 0.79846 2.19424 0
M  V30 6751 C 662.622 -0.234003 1.68483 0
M  V30 6752 O 663.807 -0.0970704 1.93957 0
M  V30 6753 C 660.937 0.242892 3.4645 0
M  V30 6754 C 659.891 1.20744 4.10615 0
M  V30 6755 C 659.217 0.512494 5.32238 0
M  V30 6756 C 660.517 2.55884 4.55325 0
M  V30 6757 H 662.211 1.70286 2.46258 0
M  V30 6758 H 659.757 0.820195 1.18359 0
M  V30 6759 H 661.71 0.00840447 4.21399 0
M  V30 6760 H 660.434 -0.696811 3.1908 0
M  V30 6761 H 659.093 1.42759 3.37662 0
M  V30 6762 H 658.741 -0.432075 5.01141 0
M  V30 6763 H 658.441 1.15583 5.7612 0
M  V30 6764 H 659.965 0.286842 6.09926 0
M  V30 6765 H 661.379 2.37946 5.21588 0
M  V30 6766 H 659.776 3.16216 5.10027 0
M  V30 6767 H 660.846 3.14968 3.68678 0
M  V30 6768 N 662.189 -1.289 0.906776 0
M  V30 6769 C 663.435 -1.95558 0.53712 0
M  V30 6770 C 663.768 -1.71262 -0.915582 0
M  V30 6771 O 663.043 -1.02961 -1.65013 0
M  V30 6772 C 663.326 -3.50198 0.838645 0
M  V30 6773 C 663.179 -3.83923 2.34357 0
M  V30 6774 C 664.498 -4.38861 0.329988 0
M  V30 6775 H 661.617 -0.710289 0.196617 0
M  V30 6776 H 664.259 -1.52392 1.13475 0
M  V30 6777 H 662.409 -3.87096 0.330024 0
M  V30 6778 H 664.081 -3.56933 2.92227 0
M  V30 6779 H 662.324 -3.31215 2.80141 0
M  V30 6780 H 662.995 -4.91883 2.5051 0
M  V30 6781 H 665.471 -4.08996 0.765609 0
M  V30 6782 H 664.347 -5.45931 0.570105 0
M  V30 6783 H 664.608 -4.35352 -0.769511 0
M  V30 6784 N 663.667 -0.670007 -1.42649 0
M  V30 6785 C 664.599 0.0501746 -2.29145 0
M  V30 6786 C 665.612 0.770331 -1.43422 0
M  V30 6787 O 666.801 0.625288 -1.6719 0
M  V30 6788 C 663.901 1.09463 -3.20735 0
M  V30 6789 C 663.074 0.44926 -4.35087 0
M  V30 6790 C 662.133 1.39285 -5.07431 0
M  V30 6791 O 661.159 0.894997 -5.6212 0
M  V30 6792 N 662.361 2.72631 -5.12496 0
M  V30 6793 H 665.126 -0.692312 -2.91594 0
M  V30 6794 H 662.687 -0.514056 -1.53522 0
M  V30 6795 H 664.679 1.72705 -3.65999 0
M  V30 6796 H 663.249 1.73891 -2.59771 0
M  V30 6797 H 662.469 -0.362573 -3.92529 0
M  V30 6798 H 663.757 -0.000544776 -5.088 0
M  V30 6799 H 663.155 3.15623 -4.69467 0
M  V30 6800 H 661.712 3.31132 -5.61422 0
M  V30 6801 N 665.145 1.52092 -0.413018 0
M  V30 6802 C 666.108 2.25706 0.398687 0
M  V30 6803 C 667.108 1.28221 0.970368 0
M  V30 6804 O 668.298 1.52131 0.848635 0
M  V30 6805 C 665.43 3.03029 1.5616 0
M  V30 6806 H 666.623 2.98888 -0.246131 0
M  V30 6807 H 664.176 1.5542 -0.165622 0
M  V30 6808 H 664.911 2.34205 2.24317 0
M  V30 6809 H 664.696 3.74606 1.15812 0
M  V30 6810 H 666.186 3.58857 2.13569 0
M  V30 6811 N 666.623 0.143563 1.56945 0
M  V30 6812 C 668.039 -0.212877 1.58174 0
M  V30 6813 C 668.239 -1.64926 1.15766 0
M  V30 6814 O 667.295 -2.37535 0.856361 0
M  V30 6815 C 668.608 0.0427573 3.0067 0
M  V30 6816 C 670.156 -0.0212221 3.12993 0
M  V30 6817 C 670.631 0.207036 4.57532 0
M  V30 6818 N 672.122 0.153845 4.62944 0
M  V30 6819 C 672.857 0.305018 5.72588 0
M  V30 6820 N 672.353 0.513722 6.90893 0
M  V30 6821 N 674.146 0.242862 5.61575 0
M  V30 6822 H 666.297 1.08148 1.82805 0
M  V30 6823 H 668.56 0.427831 0.84597 0
M  V30 6824 H 668.266 1.03672 3.36073 0
M  V30 6825 H 668.14 -0.678195 3.71053 0
M  V30 6826 H 670.527 -1.00574 2.77433 0
M  V30 6827 H 670.608 0.732004 2.45103 0
M  V30 6828 H 670.252 1.18863 4.93795 0
M  V30 6829 H 670.182 -0.566473 5.23544 0
M  V30 6830 H 672.673 -0.00294866 3.779 0
M  V30 6831 H 672.986 0.619273 7.70315 0
M  V30 6832 H 671.331 0.550001 6.9282 0
M  V30 6833 H 674.522 0.0806015 4.68031 0
M  V30 6834 H 674.695 0.364112 6.46976 0
M  V30 6835 N 668.101 -1.57061 -0.130224 0
M  V30 6836 C 669.512 -1.73539 -0.68856 0
M  V30 6837 C 669.863 -0.760554 -1.80859 0
M  V30 6838 O 668.988 0.0690796 -2.1629 0
M  V30 6839 C 669.583 -3.14666 -1.25581 0
M  V30 6840 C 668.142 -3.32689 -1.76055 0
M  V30 6841 C 667.289 -2.69436 -0.655712 0
M  V30 6842 H 670.24 -1.58412 0.0956002 0
M  V30 6843 H 670.261 -3.15595 -2.12556 0
M  V30 6844 H 669.773 -3.85593 -0.440412 0
M  V30 6845 H 667.874 -2.66786 -2.60108 0
M  V30 6846 H 667.987 -4.4077 -1.87772 0
M  V30 6847 H 666.351 -2.30362 -1.08654 0
M  V30 6848 H 667.134 -3.42979 0.14852 0
M  V30 6849 N 669.579 0.400081 -1.52437 0
M  V30 6850 C 670.827 1.14392 -1.6661 0
M  V30 6851 C 671.148 1.90792 -0.402927 0
M  V30 6852 O 670.418 1.87042 0.582425 0
M  V30 6853 H 668.998 0.425275 -0.614125 0
M  V30 6854 H 671.66 0.455076 -1.89513 0
M  V30 6855 H 670.756 1.85298 -2.51139 0
M  V30 6856 N 671.057 1.43213 0.657864 0
M  V30 6857 C 671.989 1.43974 1.78337 0
M  V30 6858 C 673.002 0.336482 1.59285 0
M  V30 6859 O 674.191 0.600631 1.68091 0
M  V30 6860 C 671.291 1.23242 3.15697 0
M  V30 6861 C 670.464 2.46319 3.61449 0
M  V30 6862 C 669.523 2.2088 4.77597 0
M  V30 6863 O 668.549 2.942 4.87273 0
M  V30 6864 N 669.751 1.22251 5.67481 0
M  V30 6865 H 672.516 2.40993 1.78164 0
M  V30 6866 H 670.077 1.3831 0.841549 0
M  V30 6867 H 672.069 1.04113 3.91079 0
M  V30 6868 H 670.639 0.346849 3.1067 0
M  V30 6869 H 669.859 2.80904 2.76563 0
M  V30 6870 H 671.147 3.28239 3.88763 0
M  V30 6871 H 670.545 0.616433 5.62331 0
M  V30 6872 H 669.102 1.09107 6.42603 0
M  V30 6873 N 672.536 -0.895792 1.29666 0
M  V30 6874 C 673.813 -1.62723 1.08538 0
M  V30 6875 C 674.193 -2.07848 -0.369119 0
M  V30 6876 O 673.541 -1.8372 -1.35864 0
M  V30 6877 C 673.751 -2.80505 2.07648 0
M  V30 6878 C 675.099 -3.51098 2.3878 0
M  V30 6879 O 676.123 -2.90679 2.05874 0
M  V30 6880 O 674.982 -4.60028 2.9502 0
M  V30 6881 H 672.076 -0.714692 0.416106 0
M  V30 6882 H 674.622 -0.943517 1.41053 0
M  V30 6883 H 673.394 -2.44386 3.05599 0
M  V30 6884 H 673.017 -3.5658 1.75887 0
M  V30 6885 N 674.014 -1.12206 -1.10668 0
M  V30 6886 C 675.263 -0.870595 -1.81944 0
M  V30 6887 C 675.576 0.605447 -1.85994 0
M  V30 6888 O 676.782 0.973433 -2.53449 0
M  V30 6889 C 675.238 -1.50783 -3.26791 0
M  V30 6890 C 674.846 -3.01849 -3.31046 0
M  V30 6891 C 676.59 -1.33653 -4.02911 0
M  V30 6892 C 674.497 -3.58518 -4.70339 0
M  V30 6893 H 673.427 -0.322043 -0.681765 0
M  V30 6894 H 676.078 -1.34827 -1.24475 0
M  V30 6895 H 674.46 -0.957825 -3.84242 0
M  V30 6896 H 675.634 -3.63321 -2.83433 0
M  V30 6897 H 673.949 -3.18346 -2.68411 0
M  V30 6898 H 676.546 -1.73416 -5.05797 0
M  V30 6899 H 676.889 -0.279949 -4.15358 0
M  V30 6900 H 677.422 -1.85562 -3.51868 0
M  V30 6901 H 674.161 -4.63925 -4.63091 0
M  V30 6902 H 673.681 -3.01819 -5.18329 0
M  V30 6903 H 675.36 -3.57434 -5.39305 0
M  V30 6904 N 675.492 1.28418 -0.913599 0
M  V30 6905 C 676.908 1.47411 -0.611728 0
M  V30 6906 C 677.108 1.83018 0.843008 0
M  V30 6907 O 676.164 1.93505 1.6221 0
M  V30 6908 C 677.477 2.57703 -1.5495 0
M  V30 6909 C 679.025 2.71572 -1.5562 0
M  V30 6910 C 679.5 3.85008 -2.48058 0
M  V30 6911 N 680.991 3.92361 -2.46184 0
M  V30 6912 C 681.726 4.79516 -3.14407 0
M  V30 6913 N 681.222 5.71262 -3.91958 0
M  V30 6914 N 683.015 4.73125 -3.03495 0
M  V30 6915 H 675.166 1.03585 -1.85429 0
M  V30 6916 H 677.429 0.515907 -0.795326 0
M  V30 6917 H 677.135 2.38298 -2.58663 0
M  V30 6918 H 677.009 3.54801 -1.28048 0
M  V30 6919 H 679.396 2.90366 -0.526441 0
M  V30 6920 H 679.477 1.75006 -1.86565 0
M  V30 6921 H 679.121 3.66969 -3.51136 0
M  V30 6922 H 679.051 4.80971 -2.14416 0
M  V30 6923 H 681.542 3.26749 -1.89851 0
M  V30 6924 H 681.855 6.34593 -4.41034 0
M  V30 6925 H 680.2 5.71103 -3.96063 0
M  V30 6926 H 683.391 4.00442 -2.42413 0
M  V30 6927 H 683.564 5.40834 -3.56935 0
M  V30 6928 N 676.97 0.677563 1.42291 0
M  V30 6929 C 678.381 0.277912 1.8462 0
M  V30 6930 C 678.732 -1.18048 1.56714 0
M  V30 6931 O 677.857 -1.90404 1.02836 0
M  V30 6932 C 678.452 0.497619 3.35126 0
M  V30 6933 C 677.011 0.152063 3.76093 0
M  V30 6934 C 676.158 0.78872 2.65847 0
M  V30 6935 H 679.109 0.879527 1.32098 0
M  V30 6936 H 679.13 -0.24939 3.79682 0
M  V30 6937 H 678.642 1.55913 3.55405 0
M  V30 6938 H 676.743 -0.905896 3.6142 0
M  V30 6939 H 676.856 0.594514 4.75397 0
M  V30 6940 H 675.22 0.219813 2.5375 0
M  V30 6941 H 676.003 1.85374 2.88949 0
M  V30 6942 N 678.448 -1.51871 0.421078 0
M  V30 6943 C 679.697 -2.01125 -0.152206 0
M  V30 6944 C 680.01 -1.3106 -1.45199 0
M  V30 6945 O 681.216 -1.71195 -2.10724 0
M  V30 6946 C 679.672 -3.58458 -0.3218 0
M  V30 6947 C 679.28 -4.37448 0.96659 0
M  V30 6948 C 681.024 -4.15908 -0.84973 0
M  V30 6949 C 678.931 -5.86451 0.763529 0
M  V30 6950 H 677.861 -0.751556 -0.0606565 0
M  V30 6951 H 680.512 -1.75115 0.548354 0
M  V30 6952 H 678.894 -3.80847 -1.08498 0
M  V30 6953 H 680.068 -4.26814 1.73684 0
M  V30 6954 H 678.383 -3.91373 1.42183 0
M  V30 6955 H 680.98 -5.24922 -1.01788 0
M  V30 6956 H 681.323 -3.74031 -1.82774 0
M  V30 6957 H 681.856 -3.97535 -0.145297 0
M  V30 6958 H 678.595 -6.3271 1.71344 0
M  V30 6959 H 678.115 -5.99791 0.0327889 0
M  V30 6960 H 679.794 -6.45697 0.410354 0
M  V30 6961 N 679.926 -0.151884 -1.56866 0
M  V30 6962 C 681.174 0.497021 -1.95893 0
M  V30 6963 C 681.495 1.65078 -1.03799 0
M  V30 6964 O 680.765 1.95642 -0.10049 0
M  V30 6965 H 679.345 0.186603 -0.723318 0
M  V30 6966 H 682.007 -0.228525 -1.93556 0
M  V30 6967 H 681.103 0.869933 -2.99731 0
M  V30 6968 N 681.404 1.57128 0.121893 0
M  V30 6969 C 682.354 1.96556 1.15541 0
M  V30 6970 C 683.338 0.840147 1.37224 0
M  V30 6971 O 684.53 1.10382 1.38365 0
M  V30 6972 C 681.659 2.37097 2.48274 0
M  V30 6973 C 680.745 3.56265 2.30078 0
M  V30 6974 N 681.136 4.72041 1.81688 0
M  V30 6975 C 679.434 3.61841 2.60744 0
M  V30 6976 C 680.135 5.54075 1.77132 0
M  V30 6977 N 679.111 4.96483 2.21371 0
M  V30 6978 H 682.913 2.83531 0.77378 0
M  V30 6979 H 680.427 1.59019 0.329672 0
M  V30 6980 H 682.424 2.6356 3.2302 0
M  V30 6981 H 681.084 1.51486 2.87197 0
M  V30 6982 H 682.095 4.95313 1.51278 0
M  V30 6983 H 678.772 2.8683 3.03373 0
M  V30 6984 H 680.162 6.56939 1.40998 0
M  V30 6985 N 682.882 -0.391992 1.52647 0
M  V30 6986 C 684.159 -1.15136 1.58123 0
M  V30 6987 C 684.539 -2.07786 0.372597 0
M  V30 6988 O 683.887 -2.19374 -0.639304 0
M  V30 6989 C 684.097 -1.91367 2.91856 0
M  V30 6990 C 685.445 -2.46833 3.45483 0
M  V30 6991 O 686.469 -2.01527 2.9371 0
M  V30 6992 O 685.328 -3.29587 4.3593 0
M  V30 6993 H 682.422 -0.526649 0.637629 0
M  V30 6994 H 684.968 -0.397386 1.64982 0
M  V30 6995 H 683.74 -1.23597 3.71268 0
M  V30 6996 H 683.363 -2.73732 2.88369 0
M  V30 6997 N 684.36 -1.4356 -0.65026 0
M  V30 6998 C 685.609 -1.44619 -1.406 0
M  V30 6999 C 685.922 -0.0752645 -1.95455 0
M  V30 7000 O 687.128 0.0366832 -2.71475 0
M  V30 7001 C 685.584 -2.54511 -2.54465 0
M  V30 7002 C 685.192 -3.97723 -2.06204 0
M  V30 7003 C 686.936 -2.64768 -3.31811 0
M  V30 7004 C 684.843 -4.99075 -3.17298 0
M  V30 7005 H 683.773 -0.537983 -0.52829 0
M  V30 7006 H 686.424 -1.69559 -0.701561 0
M  V30 7007 H 684.806 -2.22777 -3.27393 0
M  V30 7008 H 685.98 -4.38932 -1.40267 0
M  V30 7009 H 684.295 -3.91538 -1.41729 0
M  V30 7010 H 686.892 -3.37664 -4.14593 0
M  V30 7011 H 687.235 -1.69936 -3.80036 0
M  V30 7012 H 687.768 -2.95817 -2.65964 0
M  V30 7013 H 684.507 -5.95469 -2.74038 0
M  V30 7014 H 684.027 -4.62476 -3.81937 0
M  V30 7015 H 685.706 -5.21913 -3.82382 0
M  V30 7016 N 685.838 0.888903 -1.30139 0
M  V30 7017 C 686.785 1.99422 -1.16188 0
M  V30 7018 C 687.755 1.66017 -0.0523869 0
M  V30 7019 O 688.94 1.89506 -0.221864 0
M  V30 7020 C 686.08 3.34325 -0.855612 0
M  V30 7021 C 685.193 3.80445 -2.0466 0
M  V30 7022 C 684.328 5.03975 -1.67876 0
M  V30 7023 C 683.367 5.42492 -2.83493 0
M  V30 7024 N 682.504 6.57206 -2.47032 0
M  V30 7025 H 687.344 2.10687 -2.10749 0
M  V30 7026 H 684.881 1.03165 -1.04859 0
M  V30 7027 H 686.839 4.11968 -0.658681 0
M  V30 7028 H 685.469 3.22756 0.0531155 0
M  V30 7029 H 684.521 2.98745 -2.3549 0
M  V30 7030 H 685.833 4.04933 -2.91257 0
M  V30 7031 H 684.987 5.89232 -1.44535 0
M  V30 7032 H 683.726 4.8135 -0.784431 0
M  V30 7033 H 682.731 4.55764 -3.07505 0
M  V30 7034 H 683.956 5.67093 -3.73607 0
M  V30 7035 H 681.902 6.36164 -1.601 0
M  V30 7036 H 681.819 6.81543 -3.27161 0
M  V30 7037 H 683.087 7.45704 -2.27038 0
M  V30 7038 N 687.317 1.12792 1.10072 0
M  V30 7039 C 688.733 0.864745 1.34143 0
M  V30 7040 C 688.933 -0.503201 1.95116 0
M  V30 7041 O 687.989 -1.25111 2.19325 0
M  V30 7042 C 689.302 1.98413 2.25949 0
M  V30 7043 C 690.85 2.01545 2.39476 0
M  V30 7044 C 691.325 3.12727 3.34613 0
M  V30 7045 N 692.816 3.12194 3.42183 0
M  V30 7046 C 693.551 3.94862 4.15779 0
M  V30 7047 N 693.047 4.87528 4.92228 0
M  V30 7048 N 694.84 3.82985 4.11435 0
M  V30 7049 H 686.991 2.00926 0.68866 0
M  V30 7050 H 689.254 0.874564 0.365844 0
M  V30 7051 H 688.96 2.97005 1.88364 0
M  V30 7052 H 688.834 1.89254 3.26287 0
M  V30 7053 H 691.221 1.0357 2.76328 0
M  V30 7054 H 691.302 2.14777 1.3894 0
M  V30 7055 H 690.946 4.10936 2.98486 0
M  V30 7056 H 690.876 2.96732 4.35037 0
M  V30 7057 H 693.367 2.45065 2.87666 0
M  V30 7058 H 693.68 5.47109 5.45794 0
M  V30 7059 H 692.025 4.91539 4.9134 0
M  V30 7060 H 695.216 3.09923 3.50807 0
M  V30 7061 H 695.389 4.47641 4.68531 0
M  V30 7062 N 688.795 -1.27931 0.920396 0
M  V30 7063 C 690.043 -1.94304 0.555906 0
M  V30 7064 C 690.364 -1.72753 -0.904519 0
M  V30 7065 O 689.634 -1.07104 -1.64029 0
M  V30 7066 H 688.214 -0.719001 0.202599 0
M  V30 7067 H 690.876 -1.55785 1.1712 0
M  V30 7068 H 689.972 -3.02806 0.755981 0
M  V30 7069 N 690.273 -0.685099 -1.4193 0
M  V30 7070 C 691.183 -0.013404 -2.34596 0
M  V30 7071 C 692.199 0.777589 -1.55658 0
M  V30 7072 O 693.375 0.717553 -1.88184 0
M  V30 7073 C 690.44 0.919031 -3.34297 0
M  V30 7074 C 689.501 0.121417 -4.29128 0
M  V30 7075 C 688.734 1.00944 -5.24067 0
M  V30 7076 O 688.957 2.24898 -5.24192 0
M  V30 7077 O 687.891 0.464724 -6.00103 0
M  V30 7078 H 691.717 -0.776978 -2.93593 0
M  V30 7079 H 689.302 -0.445379 -1.42607 0
M  V30 7080 H 691.184 1.45402 -3.9552 0
M  V30 7081 H 689.859 1.66228 -2.77759 0
M  V30 7082 H 688.766 -0.45792 -3.71287 0
M  V30 7083 H 690.099 -0.582937 -4.88736 0
M  V30 7084 N 691.751 1.51645 -0.429126 0
M  V30 7085 C 692.991 2.03924 0.139354 0
M  V30 7086 C 693.355 1.30673 1.40672 0
M  V30 7087 O 694.556 1.73282 2.05491 0
M  V30 7088 C 692.827 3.5557 0.361179 0
M  V30 7089 S 694.386 4.29591 0.894241 0
M  V30 7090 H 691.204 0.710103 0.0356986 0
M  V30 7091 H 693.806 1.86491 -0.586644 0
M  V30 7092 H 692.51 4.06455 -0.567686 0
M  V30 7093 H 692.041 3.77283 1.11449 0
M  V30 7094 H 694.056 4.46102 2.17272 0
M  V30 7095 N 693.229 0.160201 1.56784 0
M  V30 7096 C 694.475 -0.48831 1.96833 0
M  V30 7097 C 694.808 -1.63641 1.04571 0
M  V30 7098 O 694.083 -1.94289 0.0906481 0
M  V30 7099 C 694.366 -0.981908 3.46454 0
M  V30 7100 C 694.219 0.165607 4.49495 0
M  V30 7101 C 695.538 -1.85931 3.98896 0
M  V30 7102 H 692.657 -0.176027 0.71567 0
M  V30 7103 H 695.299 0.244093 1.88426 0
M  V30 7104 H 693.449 -1.60602 3.5375 0
M  V30 7105 H 695.121 0.802372 4.54268 0
M  V30 7106 H 693.364 0.822789 4.25926 0
M  V30 7107 H 694.035 -0.221699 5.51555 0
M  V30 7108 H 696.511 -1.33327 3.94161 0
M  V30 7109 H 695.387 -2.17373 5.04024 0
M  V30 7110 H 695.648 -2.80106 3.42042 0
M  V30 7111 N 694.707 -1.5719 -0.113559 0
M  V30 7112 C 695.637 -2.03772 -1.14013 0
M  V30 7113 C 696.618 -0.923176 -1.42869 0
M  V30 7114 O 697.803 -1.19325 -1.53216 0
M  V30 7115 C 694.933 -2.44663 -2.4649 0
M  V30 7116 C 693.887 -3.59612 -2.32085 0
M  V30 7117 C 693.213 -3.8642 -3.69573 0
M  V30 7118 C 694.513 -4.91149 -1.7768 0
M  V30 7119 H 696.207 -2.89785 -0.752665 0
M  V30 7120 H 693.753 -1.39412 -0.360609 0
M  V30 7121 H 695.706 -2.75857 -3.18561 0
M  V30 7122 H 694.43 -1.55628 -2.87137 0
M  V30 7123 H 693.089 -3.28636 -1.62461 0
M  V30 7124 H 692.737 -2.94581 -4.07715 0
M  V30 7125 H 692.437 -4.63797 -3.60786 0
M  V30 7126 H 693.961 -4.2007 -4.4314 0
M  V30 7127 H 695.375 -5.20843 -2.39574 0
M  V30 7128 H 693.772 -5.72562 -1.79701 0
M  V30 7129 H 694.842 -4.79301 -0.734776 0
M  V30 7130 N 696.185 0.383891 -1.52853 0
M  V30 7131 C 697.148 1.45197 -1.77343 0
M  V30 7132 C 698.148 1.47362 -0.643522 0
M  V30 7133 O 699.338 1.48443 -0.911613 0
M  V30 7134 C 696.47 2.8445 -1.87885 0
M  V30 7135 H 697.663 1.24764 -2.72716 0
M  V30 7136 H 695.216 0.615939 -1.43652 0
M  V30 7137 H 695.951 3.10222 -0.94515 0
M  V30 7138 H 695.736 2.8428 -2.70051 0
M  V30 7139 H 697.226 3.61832 -2.08488 0
M  V30 7140 N 697.663 1.43903 0.642637 0
M  V30 7141 C 698.61 1.49881 1.75512 0
M  V30 7142 C 699.58 0.347538 1.62423 0
M  V30 7143 O 700.765 0.556177 1.82514 0
M  V30 7144 C 697.905 1.43797 3.13714 0
M  V30 7145 C 697.018 2.6921 3.37861 0
M  V30 7146 C 696.153 2.5504 4.6597 0
M  V30 7147 C 695.192 3.75671 4.83257 0
M  V30 7148 N 694.329 3.60247 6.02633 0
M  V30 7149 H 699.169 2.44935 1.69737 0
M  V30 7150 H 696.706 1.21572 0.828165 0
M  V30 7151 H 698.664 1.38262 3.93624 0
M  V30 7152 H 697.294 0.523173 3.18532 0
M  V30 7153 H 696.346 2.8498 2.51973 0
M  V30 7154 H 697.658 3.58786 3.46517 0
M  V30 7155 H 696.812 2.47273 5.54023 0
M  V30 7156 H 695.551 1.63006 4.59653 0
M  V30 7157 H 694.556 3.83836 3.93637 0
M  V30 7158 H 695.781 4.68728 4.91397 0
M  V30 7159 H 693.727 2.70955 5.97427 0
M  V30 7160 H 693.644 4.43431 6.12295 0
M  V30 7161 H 694.912 3.56351 6.93278 0
M  V30 7162 N 699.141 -0.881989 1.30609 0
M  V30 7163 C 700.389 -1.63082 1.19368 0
M  V30 7164 C 700.71 -1.93376 -0.251147 0
M  V30 7165 O 699.98 -1.5723 -1.16857 0
M  V30 7166 H 698.56 -0.604542 0.438791 0
M  V30 7167 H 701.222 -1.05658 1.63776 0
M  V30 7168 H 700.318 -2.57966 1.7567 0
M  V30 7169 N 700.619 -1.13374 -1.09472 0
M  V30 7170 C 701.847 -0.918351 -1.85402 0
M  V30 7171 C 702.262 0.53281 -1.81126 0
M  V30 7172 O 701.619 1.36879 -1.20708 0
M  V30 7173 C 701.67 -1.39743 -3.33398 0
M  V30 7174 O 701.391 -2.79172 -3.37631 0
M  V30 7175 C 702.892 -1.22042 -4.2617 0
M  V30 7176 H 700.112 -0.327511 -0.585643 0
M  V30 7177 H 702.656 -1.50617 -1.38328 0
M  V30 7178 H 700.811 -0.852619 -3.77901 0
M  V30 7179 H 701.225 -3.00428 -4.29934 0
M  V30 7180 H 702.699 -1.60438 -5.2817 0
M  V30 7181 H 703.176 -0.162047 -4.38901 0
M  V30 7182 H 703.782 -1.75323 -3.87482 0
M  V30 7183 N 702.098 1.27442 -0.927168 0
M  V30 7184 C 703.048 2.24519 -0.396878 0
M  V30 7185 C 704.032 1.52981 0.498555 0
M  V30 7186 O 705.224 1.7378 0.336087 0
M  V30 7187 C 702.353 3.41514 0.349694 0
M  V30 7188 C 701.439 4.20357 -0.562226 0
M  V30 7189 N 701.83 4.7702 -1.68182 0
M  V30 7190 C 700.128 4.44503 -0.365135 0
M  V30 7191 C 700.829 5.36467 -2.24895 0
M  V30 7192 N 699.805 5.21371 -1.5386 0
M  V30 7193 H 703.607 2.65911 -1.25173 0
M  V30 7194 H 701.121 1.42366 -0.78138 0
M  V30 7195 H 703.118 4.10161 0.746536 0
M  V30 7196 H 701.778 3.01653 1.20148 0
M  V30 7197 H 702.789 4.74985 -2.06421 0
M  V30 7198 H 699.466 4.15111 0.446037 0
M  V30 7199 H 700.856 5.91264 -3.1915 0
M  V30 7200 N 703.576 0.692616 1.41565 0
M  V30 7201 C 704.509 -0.025063 2.28186 0
M  V30 7202 C 705.487 -0.790912 1.42068 0
M  V30 7203 O 706.671 -0.782344 1.71498 0
M  V30 7204 C 703.798 -1.04285 3.22246 0
M  V30 7205 C 702.844 -0.370515 4.24888 0
M  V30 7206 S 703.677 0.884942 5.28137 0
M  V30 7207 C 704.833 -0.131324 6.25762 0
M  V30 7208 H 705.066 0.709626 2.88707 0
M  V30 7209 H 702.599 0.482783 1.46658 0
M  V30 7210 H 704.557 -1.62493 3.7697 0
M  V30 7211 H 703.218 -1.7501 2.60827 0
M  V30 7212 H 702.411 -1.13911 4.90959 0
M  V30 7213 H 702.013 0.138411 3.73744 0
M  V30 7214 H 704.305 -0.985527 6.70294 0
M  V30 7215 H 705.248 0.495384 7.06365 0
M  V30 7216 H 705.656 -0.484777 5.62415 0
M  V30 7217 N 705.054 -1.51416 0.437162 0
M  V30 7218 C 706.302 -2.01687 -0.129108 0
M  V30 7219 C 706.623 -1.32329 -1.43227 0
M  V30 7220 O 705.893 -0.457796 -1.90476 0
M  V30 7221 H 704.473 -0.745277 -0.0507023 0
M  V30 7222 H 707.135 -1.86075 0.579828 0
M  V30 7223 H 706.231 -3.10605 -0.305141 0
M  V30 7224 N 706.532 -0.168513 -1.56696 0
M  V30 7225 C 707.943 0.348694 -1.83415 0
M  V30 7226 C 708.294 1.63257 -1.0882 0
M  V30 7227 O 707.419 2.13707 -0.340333 0
M  V30 7228 C 708.014 0.639423 -3.32711 0
M  V30 7229 C 706.573 1.10108 -3.59935 0
M  V30 7230 C 705.72 0.135464 -2.76969 0
M  V30 7231 H 708.671 -0.392829 -1.53761 0
M  V30 7232 H 708.692 1.49179 -3.50037 0
M  V30 7233 H 708.204 -0.295173 -3.86976 0
M  V30 7234 H 706.305 2.05088 -3.11079 0
M  V30 7235 H 706.418 1.01218 -4.68286 0
M  V30 7236 H 704.782 0.632286 -2.46727 0
M  V30 7237 H 705.565 -0.793104 -3.34013 0
M  V30 7238 N 708.01 1.57248 0.105221 0
M  V30 7239 C 709.235 1.90143 0.828264 0
M  V30 7240 C 709.66 0.761811 1.71983 0
M  V30 7241 O 709.018 -0.287086 1.79013 0
M  V30 7242 C 709.066 3.21856 1.62608 0
M  V30 7243 O 708.17 3.08732 2.7342 0
M  V30 7244 H 707.511 0.623558 0.228192 0
M  V30 7245 H 710.041 2.0443 0.0834826 0
M  V30 7246 H 710.051 3.54916 2.01243 0
M  V30 7247 H 708.726 4.0439 0.971687 0
M  V30 7248 H 707.303 2.87167 2.37886 0
M  V30 7249 N 709.488 -0.375779 1.53054 0
M  V30 7250 C 710.398 -1.48381 1.81715 0
M  V30 7251 C 711.414 -1.59087 0.704795 0
M  V30 7252 O 712.59 -1.75174 0.993785 0
M  V30 7253 C 709.655 -2.83767 1.99192 0
M  V30 7254 C 708.716 -2.82673 3.23102 0
M  V30 7255 C 707.949 -4.11601 3.39736 0
M  V30 7256 O 708.172 -5.07243 2.60885 0
M  V30 7257 O 707.106 -4.18034 4.33049 0
M  V30 7258 H 710.932 -1.27089 2.7583 0
M  V30 7259 H 708.517 -0.564902 1.38308 0
M  V30 7260 H 710.399 -3.64004 2.12318 0
M  V30 7261 H 709.074 -3.05057 1.08267 0
M  V30 7262 H 707.981 -2.0117 3.15407 0
M  V30 7263 H 709.314 -2.66335 4.13916 0
M  V30 7264 N 710.966 -1.44241 -0.634997 0
M  V30 7265 C 712.215 -1.46102 -1.39058 0
M  V30 7266 C 712.528 -0.0959909 -1.95364 0
M  V30 7267 O 713.734 0.00788751 -2.71499 0
M  V30 7268 C 712.19 -2.57195 -2.51751 0
M  V30 7269 C 711.798 -3.99888 -2.01974 0
M  V30 7270 C 713.542 -2.68272 -3.28984 0
M  V30 7271 C 711.449 -5.02412 -3.11987 0
M  V30 7272 H 710.379 -0.543556 -0.522554 0
M  V30 7273 H 713.03 -1.70294 -0.683538 0
M  V30 7274 H 711.412 -2.26237 -3.25012 0
M  V30 7275 H 712.586 -4.40396 -1.35604 0
M  V30 7276 H 710.901 -3.93019 -1.37568 0
M  V30 7277 H 713.498 -3.42042 -4.10988 0
M  V30 7278 H 713.841 -1.73957 -3.78212 0
M  V30 7279 H 714.374 -2.98622 -2.62812 0
M  V30 7280 H 711.113 -5.98342 -2.67707 0
M  V30 7281 H 710.633 -4.66501 -3.77011 0
M  V30 7282 H 712.312 -5.25939 -3.76825 0
M  V30 7283 N 712.444 0.87505 -1.31075 0
M  V30 7284 C 713.692 1.62447 -1.20231 0
M  V30 7285 C 714.013 1.93506 0.240888 0
M  V30 7286 O 713.283 1.57847 1.16022 0
M  V30 7287 H 711.863 0.602207 -0.441991 0
M  V30 7288 H 714.525 1.04788 -1.64334 0
M  V30 7289 H 713.621 2.57031 -1.77036 0
M  V30 7290 N 713.922 1.13953 1.08869 0
M  V30 7291 C 714.852 0.844824 2.17681 0
M  V30 7292 C 715.833 -0.198213 1.68941 0
M  V30 7293 O 717.018 -0.0559073 1.9412 0
M  V30 7294 C 714.148 0.316325 3.45856 0
M  V30 7295 C 713.102 1.29426 4.07962 0
M  V30 7296 C 712.428 0.625275 5.31031 0
M  V30 7297 C 713.728 2.65484 4.49795 0
M  V30 7298 H 715.422 1.75471 2.42591 0
M  V30 7299 H 712.968 0.845116 1.16592 0
M  V30 7300 H 714.921 0.0977876 4.21287 0
M  V30 7301 H 713.645 -0.628972 3.20486 0
M  V30 7302 H 712.304 1.49889 3.34558 0
M  V30 7303 H 711.952 -0.325678 5.01945 0
M  V30 7304 H 711.652 1.27777 5.73539 0
M  V30 7305 H 713.176 0.416152 6.0918 0
M  V30 7306 H 714.59 2.48957 5.16424 0
M  V30 7307 H 712.987 3.26963 5.03205 0
M  V30 7308 H 714.057 3.22717 3.61914 0
M  V30 7309 N 715.4 -1.26948 0.933913 0
M  V30 7310 C 716.33 -2.29017 0.45534 0
M  V30 7311 C 717.311 -1.62961 -0.487605 0
M  V30 7312 O 718.496 -1.90223 -0.391022 0
M  V30 7313 C 715.626 -3.46112 -0.287015 0
M  V30 7314 C 714.58 -4.24205 0.568682 0
M  V30 7315 C 713.906 -5.3384 -0.303206 0
M  V30 7316 C 715.206 -4.88954 1.83633 0
M  V30 7317 H 716.9 -2.69298 1.30839 0
M  V30 7318 H 714.446 -1.29459 0.630579 0
M  V30 7319 H 716.399 -4.16622 -0.6328 0
M  V30 7320 H 715.123 -3.04765 -1.17414 0
M  V30 7321 H 713.782 -3.5545 0.897261 0
M  V30 7322 H 713.43 -4.88734 -1.18947 0
M  V30 7323 H 713.13 -5.86998 0.265879 0
M  V30 7324 H 714.654 -6.0719 -0.644423 0
M  V30 7325 H 716.068 -5.51717 1.55823 0
M  V30 7326 H 714.465 -5.52198 2.34941 0
M  V30 7327 H 715.535 -4.12305 2.55211 0
M  V30 7328 N 716.879 -0.700114 -1.41195 0
M  V30 7329 C 717.842 -0.0465706 -2.29153 0
M  V30 7330 C 718.842 0.703302 -1.44604 0
M  V30 7331 O 720.032 0.537513 -1.657 0
M  V30 7332 C 717.164 0.944324 -3.2756 0
M  V30 7333 H 718.357 -0.821064 -2.88442 0
M  V30 7334 H 715.91 -0.463869 -1.49258 0
M  V30 7335 H 716.645 1.74642 -2.73259 0
M  V30 7336 H 716.43 0.409701 -3.89954 0
M  V30 7337 H 717.92 1.39925 -3.9346 0
M  V30 7338 N 718.357 1.51182 -0.445186 0
M  V30 7339 C 719.585 2.06568 0.117091 0
M  V30 7340 C 720 1.31182 1.35781 0
M  V30 7341 O 719.357 0.373605 1.78635 0
M  V30 7342 C 719.408 3.58917 0.431408 0
M  V30 7343 O 719.129 4.31456 -0.760078 0
M  V30 7344 C 720.63 4.30843 1.0435 0
M  V30 7345 H 717.85 0.670985 0.00444436 0
M  V30 7346 H 720.394 1.94666 -0.626525 0
M  V30 7347 H 718.549 3.70708 1.12493 0
M  V30 7348 H 718.963 5.22215 -0.489048 0
M  V30 7349 H 720.437 5.38499 1.21337 0
M  V30 7350 H 720.914 3.89644 2.02667 0
M  V30 7351 H 721.52 4.23516 0.38913 0
M  V30 7352 N 719.835 0.176821 1.56605 0
M  V30 7353 C 721.081 -0.467406 1.9734 0
M  V30 7354 C 721.414 -1.62523 1.06301 0
M  V30 7355 O 720.689 -1.94182 0.11125 0
M  V30 7356 C 720.972 -0.945106 3.47476 0
M  V30 7357 C 720.825 0.213273 4.49294 0
M  V30 7358 C 722.144 -1.8169 4.00845 0
M  V30 7359 H 719.263 -0.168426 0.717497 0
M  V30 7360 H 721.905 0.264065 1.88156 0
M  V30 7361 H 720.055 -1.56841 3.55434 0
M  V30 7362 H 721.727 0.850508 4.53392 0
M  V30 7363 H 719.97 0.867918 4.25029 0
M  V30 7364 H 720.641 -0.163187 5.51759 0
M  V30 7365 H 723.117 -1.29139 3.95553 0
M  V30 7366 H 721.993 -2.12015 5.06301 0
M  V30 7367 H 722.254 -2.76463 3.44994 0
M  V30 7368 N 721.313 -1.57302 -0.09688 0
M  V30 7369 C 722.561 -1.8563 -0.799117 0
M  V30 7370 C 722.882 -0.765263 -1.79356 0
M  V30 7371 O 722.152 0.208657 -1.94786 0
M  V30 7372 H 720.732 -0.684937 -0.298111 0
M  V30 7373 H 723.394 -1.9474 -0.0789341 0
M  V30 7374 H 722.49 -2.82305 -1.3308 0
M  V30 7375 N 722.791 0.367657 -1.53252 0
M  V30 7376 C 724.037 1.11216 -1.69584 0
M  V30 7377 C 724.37 1.89026 -0.445269 0
M  V30 7378 O 723.645 1.86342 0.557404 0
M  V30 7379 C 723.928 2.07308 -2.94441 0
M  V30 7380 C 723.781 1.3312 -4.2965 0
M  V30 7381 C 725.1 3.07459 -3.14892 0
M  V30 7382 H 722.219 0.40294 -0.617096 0
M  V30 7383 H 724.861 0.393201 -1.85887 0
M  V30 7384 H 723.011 2.68617 -2.80673 0
M  V30 7385 H 724.683 0.746111 -4.55226 0
M  V30 7386 H 722.926 0.633051 -4.29156 0
M  V30 7387 H 723.597 2.03443 -5.13142 0
M  V30 7388 H 726.073 2.56252 -3.27832 0
M  V30 7389 H 724.949 3.71919 -4.03693 0
M  V30 7390 H 725.21 3.77514 -2.30077 0
M  V30 7391 N 724.269 1.44576 0.627338 0
M  V30 7392 C 725.497 1.51048 1.41394 0
M  V30 7393 C 725.912 0.136568 1.88305 0
M  V30 7394 O 725.269 -0.858251 1.6106 0
M  V30 7395 C 725.32 2.47837 2.63172 0
M  V30 7396 O 725.041 3.79887 2.18215 0
M  V30 7397 C 726.542 2.63811 3.56257 0
M  V30 7398 H 723.762 0.512171 0.4335 0
M  V30 7399 H 726.306 1.89576 0.766878 0
M  V30 7400 H 724.461 2.12433 3.23961 0
M  V30 7401 H 724.875 4.32177 2.97192 0
M  V30 7402 H 726.349 3.35554 4.38301 0
M  V30 7403 H 726.826 1.69169 4.05313 0
M  V30 7404 H 727.432 3.0013 3.01333 0
M  V30 7405 N 725.747 -0.868086 1.31537 0
M  V30 7406 C 726.657 -2.00801 1.21311 0
M  V30 7407 C 727.673 -1.73518 0.129431 0
M  V30 7408 O 728.849 -1.98378 0.347588 0
M  V30 7409 C 725.914 -3.3419 0.922935 0
M  V30 7410 C 724.975 -3.74783 2.0937 0
M  V30 7411 C 724.208 -5.01807 1.81728 0
M  V30 7412 O 724.431 -5.65404 0.753313 0
M  V30 7413 O 723.365 -5.39213 2.67457 0
M  V30 7414 H 727.191 -2.12361 2.17109 0
M  V30 7415 H 724.776 -0.996684 1.11295 0
M  V30 7416 H 726.658 -4.14174 0.777033 0
M  V30 7417 H 725.333 -3.237 -0.00500301 0
M  V30 7418 H 724.24 -2.95432 2.29501 0
M  V30 7419 H 725.573 -3.89902 3.00396 0
M  V30 7420 N 727.225 -1.14528 -1.08264 0
M  V30 7421 C 728.471 -0.91576 -1.80947 0
M  V30 7422 C 728.804 0.55623 -1.86064 0
M  V30 7423 O 728.079 1.41207 -1.33756 0
M  V30 7424 C 728.362 -1.51917 -3.26486 0
M  V30 7425 C 728.215 -3.06111 -3.2957 0
M  V30 7426 C 729.534 -1.19724 -4.23502 0
M  V30 7427 H 726.653 -0.334113 -0.656915 0
M  V30 7428 H 729.295 -1.41547 -1.26746 0
M  V30 7429 H 727.445 -1.0942 -3.72773 0
M  V30 7430 H 729.117 -3.57448 -2.91597 0
M  V30 7431 H 727.36 -3.40483 -2.688 0
M  V30 7432 H 728.031 -3.43438 -4.32151 0
M  V30 7433 H 730.507 -1.56467 -3.85561 0
M  V30 7434 H 729.383 -1.64575 -5.23647 0
M  V30 7435 H 729.644 -0.112771 -4.41956 0
M  V30 7436 N 728.703 1.26451 -0.940633 0
M  V30 7437 C 729.613 2.30128 -0.455881 0
M  V30 7438 C 730.629 1.67536 0.469867 0
M  V30 7439 O 731.805 1.98344 0.349529 0
M  V30 7440 C 728.87 3.45634 0.271648 0
M  V30 7441 C 727.931 4.23709 -0.690594 0
M  V30 7442 C 727.164 5.337 0.00231047 0
M  V30 7443 O 727.387 5.57215 1.21935 0
M  V30 7444 O 726.321 5.98091 -0.676111 0
M  V30 7445 H 730.147 2.73655 -1.31707 0
M  V30 7446 H 727.732 1.3164 -0.706497 0
M  V30 7447 H 729.614 4.15853 0.681486 0
M  V30 7448 H 728.289 3.04138 1.10824 0
M  V30 7449 H 727.196 3.55974 -1.15037 0
M  V30 7450 H 728.529 4.68953 -1.49478 0
M  V30 7451 N 730.181 0.707592 1.40822 0
M  V30 7452 C 731.427 0.244031 2.01326 0
M  V30 7453 C 731.76 -1.15722 1.55955 0
M  V30 7454 O 731.035 -1.78347 0.776044 0
M  V30 7455 C 731.318 0.315128 3.58718 0
M  V30 7456 C 731.171 1.75419 4.14184 0
M  V30 7457 C 732.49 -0.318251 4.38948 0
M  V30 7458 H 729.609 0.0901471 0.731466 0
M  V30 7459 H 732.251 0.898584 1.67408 0
M  V30 7460 H 730.401 -0.242176 3.87744 0
M  V30 7461 H 732.073 2.36626 3.95987 0
M  V30 7462 H 730.316 2.28449 3.68773 0
M  V30 7463 H 730.987 1.75538 5.23345 0
M  V30 7464 H 733.463 0.156514 4.15806 0
M  V30 7465 H 732.339 -0.238019 5.48384 0
M  V30 7466 H 732.6 -1.40067 4.19325 0
M  V30 7467 N 731.66 -1.50943 0.453197 0
M  V30 7468 C 732.608 -2.29728 -0.364419 0
M  V30 7469 C 733.602 -1.36246 -1.00664 0
M  V30 7470 O 734.808 -1.53518 -0.939794 0
M  V30 7471 H 731.183 -0.739536 -0.136347 0
M  V30 7472 H 733.154 -2.96672 0.320696 0
M  V30 7473 C 731.903 -3.1629 -1.44415 0
M  V30 7474 H 731.226 -3.88119 -0.959343 0
M  V30 7475 H 732.666 -3.74444 -1.98917 0
M  V30 7476 C 731.125 -2.32702 -2.43622 0
M  V30 7477 O 731.655 -1.99763 -3.48508 0
M  V30 7478 N 729.861 -1.95621 -2.14897 0
M  V30 7479 H 729.408 -2.22607 -1.29629 0
M  V30 7480 H 729.366 -1.39993 -2.81513 0
M  V30 7481 N 733.138 -0.185124 -1.56509 0
M  V30 7482 C 734.085 0.739729 -2.18624 0
M  V30 7483 C 735.055 1.217 -1.13042 0
M  V30 7484 O 736.24 1.28268 -1.41251 0
M  V30 7485 C 733.38 1.95787 -2.84186 0
M  V30 7486 C 732.493 1.52289 -4.04267 0
M  V30 7487 C 731.628 2.69576 -4.57714 0
M  V30 7488 C 730.667 2.22636 -5.70175 0
M  V30 7489 N 729.804 3.33065 -6.18071 0
M  V30 7490 H 734.644 0.203269 -2.97306 0
M  V30 7491 H 732.181 0.0885946 -1.46833 0
M  V30 7492 H 734.139 2.67253 -3.20361 0
M  V30 7493 H 732.769 2.4678 -2.08085 0
M  V30 7494 H 731.821 0.704458 -3.7382 0
M  V30 7495 H 733.133 1.13843 -4.85635 0
M  V30 7496 H 732.287 3.4918 -4.96143 0
M  V30 7497 H 731.026 3.1129 -3.75433 0
M  V30 7498 H 730.031 1.41483 -5.31284 0
M  V30 7499 H 731.256 1.81964 -6.54267 0
M  V30 7500 H 729.202 3.74328 -5.38715 0
M  V30 7501 H 729.119 2.98756 -6.94464 0
M  V30 7502 H 730.387 4.12912 -6.61153 0
M  V30 7503 N 734.616 1.57351 0.0885366 0
M  V30 7504 C 735.863 1.86419 0.790824 0
M  V30 7505 C 736.191 0.774561 1.78412 0
M  V30 7506 O 735.446 -0.23119 1.9433 0
M  V30 7507 C 735.745 3.22098 1.5488 0
M  V30 7508 C 735.411 4.4548 0.697025 0
M  V30 7509 C 734.073 4.78975 0.462237 0
M  V30 7510 C 736.425 5.21094 0.105315 0
M  V30 7511 C 733.753 5.85507 -0.374016 0
M  V30 7512 C 736.105 6.28509 -0.718298 0
M  V30 7513 C 734.769 6.60515 -0.963116 0
M  V30 7514 H 734.039 0.682157 0.289383 0
M  V30 7515 H 736.686 1.91429 0.0520961 0
M  V30 7516 H 734.991 3.12803 2.35927 0
M  V30 7517 H 736.688 3.41819 2.09669 0
M  V30 7518 H 733.278 4.19255 0.890137 0
M  V30 7519 H 737.462 4.95544 0.273856 0
M  V30 7520 H 732.718 6.08713 -0.572606 0
M  V30 7521 H 736.892 6.86268 -1.18362 0
M  V30 7522 H 734.519 7.42893 -1.6129 0
M  V30 7523 N 736.094 -0.359525 1.53444 0
M  V30 7524 C 737.505 -0.936009 1.61542 0
M  V30 7525 C 737.856 -1.90069 0.486633 0
M  V30 7526 O 736.981 -2.12929 -0.386047 0
M  V30 7527 C 737.576 -1.70441 2.92806 0
M  V30 7528 C 736.135 -2.23015 3.03218 0
M  V30 7529 C 735.282 -1.04438 2.56881 0
M  V30 7530 H 738.233 -0.138134 1.58098 0
M  V30 7531 H 738.254 -2.56609 2.80948 0
M  V30 7532 H 737.766 -1.00205 3.74941 0
M  V30 7533 H 735.867 -2.96475 2.25684 0
M  V30 7534 H 735.98 -2.50481 4.08407 0
M  V30 7535 H 734.344 -1.41314 2.11902 0
M  V30 7536 H 735.127 -0.356905 3.4144 0
M  V30 7537 N 737.572 -1.44907 -0.619662 0
M  V30 7538 C 738.818 -1.48512 -1.38102 0
M  V30 7539 C 739.151 -0.121686 -1.93818 0
M  V30 7540 O 738.426 0.862256 -1.74343 0
M  V30 7541 C 738.709 -2.55469 -2.53787 0
M  V30 7542 C 738.562 -4.01212 -2.03345 0
M  V30 7543 C 739.881 -2.58821 -3.55949 0
M  V30 7544 H 737 -0.540712 -0.500799 0
M  V30 7545 H 739.642 -1.7665 -0.69962 0
M  V30 7546 H 737.792 -2.31606 -3.11915 0
M  V30 7547 H 739.464 -4.36245 -1.49959 0
M  V30 7548 H 737.707 -4.12443 -1.34438 0
M  V30 7549 H 738.378 -4.71717 -2.86683 0
M  V30 7550 H 740.854 -2.80172 -3.07641 0
M  V30 7551 H 739.73 -3.35542 -4.34399 0
M  V30 7552 H 739.991 -1.63451 -4.10775 0
M  V30 7553 N 739.05 0.861098 -1.31996 0
M  V30 7554 C 740.296 1.61721 -1.22369 0
M  V30 7555 C 740.629 1.93 0.215587 0
M  V30 7556 O 739.904 1.56789 1.15098 0
M  V30 7557 C 740.187 2.9417 -2.07691 0
M  V30 7558 C 740.04 2.69714 -3.59965 0
M  V30 7559 C 741.359 3.95372 -1.93312 0
M  V30 7560 H 738.478 0.586822 -0.44588 0
M  V30 7561 H 741.12 0.994788 -1.61876 0
M  V30 7562 H 739.27 3.47292 -1.74128 0
M  V30 7563 H 740.942 2.23196 -4.03709 0
M  V30 7564 H 739.185 2.03789 -3.82952 0
M  V30 7565 H 739.856 3.63996 -4.14983 0
M  V30 7566 H 742.332 3.51487 -2.22701 0
M  V30 7567 H 741.208 4.85916 -2.55298 0
M  V30 7568 H 741.469 4.32865 -0.898922 0
M  V30 7569 N 740.528 1.15101 1.07655 0
M  V30 7570 C 741.491 0.847625 2.12951 0
M  V30 7571 C 742.491 -0.151227 1.60087 0
M  V30 7572 O 743.681 0.0780399 1.74025 0
M  V30 7573 C 740.813 0.265 3.39868 0
M  V30 7574 H 742.006 1.7809 2.41296 0
M  V30 7575 H 739.559 0.958072 1.23494 0
M  V30 7576 H 740.294 -0.676625 3.17163 0
M  V30 7577 H 740.079 0.984554 3.79538 0
M  V30 7578 H 741.569 0.0702121 4.17541 0
M  V30 7579 N 742.006 -1.2595 0.947325 0
M  V30 7580 C 743.252 -1.9375 0.599064 0
M  V30 7581 C 743.585 -1.74088 -0.860632 0
M  V30 7582 O 742.86 -1.08158 -1.61654 0
M  V30 7583 C 743.143 -3.47353 0.949634 0
M  V30 7584 C 742.996 -3.76273 2.46452 0
M  V30 7585 C 744.315 -4.37589 0.469442 0
M  V30 7586 H 741.434 -0.703674 0.219115 0
M  V30 7587 H 744.076 -1.48705 1.18266 0
M  V30 7588 H 742.226 -3.8585 0.453008 0
M  V30 7589 H 743.898 -3.47455 3.03435 0
M  V30 7590 H 742.141 -3.22135 2.90537 0
M  V30 7591 H 742.812 -4.83664 2.66032 0
M  V30 7592 H 745.288 -4.06353 0.89534 0
M  V30 7593 H 744.164 -5.43841 0.7435 0
M  V30 7594 H 744.425 -4.37579 -0.630618 0
M  V30 7595 N 743.484 -0.715051 -1.40445 0
M  V30 7596 C 744.417 -0.0112426 -2.28197 0
M  V30 7597 C 745.395 0.768211 -1.43308 0
M  V30 7598 O 746.579 0.754961 -1.72721 0
M  V30 7599 C 743.706 0.991453 -3.23864 0
M  V30 7600 C 742.752 0.302873 -4.25423 0
M  V30 7601 S 743.585 -0.968852 -5.26663 0
M  V30 7602 C 744.741 0.0317538 -6.25892 0
M  V30 7603 H 744.974 -0.755467 -2.87541 0
M  V30 7604 H 742.507 -0.506054 -1.45871 0
M  V30 7605 H 744.465 1.56475 -3.79507 0
M  V30 7606 H 743.126 1.70838 -2.63578 0
M  V30 7607 H 742.319 1.06086 -4.92709 0
M  V30 7608 H 741.921 -0.197853 -3.73476 0
M  V30 7609 H 744.213 0.878764 -6.71777 0
M  V30 7610 H 745.156 -0.607698 -7.05488 0
M  V30 7611 H 745.564 0.39524 -5.63115 0
M  V30 7612 N 744.962 1.50701 -0.461195 0
M  V30 7613 C 746.187 2.07171 0.0974773 0
M  V30 7614 C 746.612 1.32391 1.3362 0
M  V30 7615 O 745.97 0.368676 1.77512 0
M  V30 7616 C 746.018 3.58651 0.374409 0
M  V30 7617 O 745.122 3.85816 1.4567 0
M  V30 7618 H 744.463 0.663944 -0.00862047 0
M  V30 7619 H 746.993 1.94021 -0.649394 0
M  V30 7620 H 747.003 4.03295 0.617843 0
M  V30 7621 H 745.678 4.12498 -0.530829 0
M  V30 7622 H 744.255 3.53018 1.20136 0
M  V30 7623 N 746.441 0.193421 1.56409 0
M  V30 7624 C 747.669 -0.451438 2.01915 0
M  V30 7625 C 748.084 -1.55306 1.07357 0
M  V30 7626 O 747.441 -1.82333 0.0781512 0
M  V30 7627 C 747.492 -1.00931 3.47124 0
M  V30 7628 O 747.213 0.0483623 4.38073 0
M  V30 7629 C 748.714 -1.73021 4.0814 0
M  V30 7630 H 745.934 -0.113495 0.661332 0
M  V30 7631 H 748.478 0.301636 2.02263 0
M  V30 7632 H 746.633 -1.71277 3.47481 0
M  V30 7633 H 747.047 -0.366644 5.23217 0
M  V30 7634 H 748.521 -2.07289 5.11601 0
M  V30 7635 H 748.998 -2.6333 3.51502 0
M  V30 7636 H 749.604 -1.07264 4.11551 0
M  V30 7637 N 747.919 -1.57396 -0.0801906 0
M  V30 7638 C 749.167 -1.86467 -0.779384 0
M  V30 7639 C 749.488 -0.784243 -1.78535 0
M  V30 7640 O 748.758 0.187986 -1.94996 0
M  V30 7641 H 747.338 -0.68806 -0.29083 0
M  V30 7642 H 750 -1.94813 -0.0582749 0
M  V30 7643 H 749.096 -2.83701 -1.30078 0
M  V30 7644 N 749.397 0.351382 -1.53633 0
M  V30 7645 C 750.345 1.45142 -1.8176 0
M  V30 7646 C 751.339 1.54819 -0.687571 0
M  V30 7647 O 752.545 1.57536 -0.870772 0
M  V30 7648 H 748.92 0.483789 -0.575719 0
M  V30 7649 H 750.891 1.1863 -2.73806 0
M  V30 7650 C 749.64 2.81779 -2.03706 0
M  V30 7651 H 748.963 2.75097 -2.90107 0
M  V30 7652 H 750.403 3.5789 -2.27356 0
M  V30 7653 C 748.862 3.26762 -0.820271 0
M  V30 7654 O 749.392 4.01697 -0.0158603 0
M  V30 7655 N 747.598 2.83472 -0.639699 0
M  V30 7656 H 747.145 2.22655 -1.29547 0
M  V30 7657 H 747.103 3.13924 0.172995 0
M  V30 7658 N 750.875 1.45233 0.611969 0
M  V30 7659 C 751.785 1.56098 1.7513 0
M  V30 7660 C 752.801 0.445646 1.68196 0
M  V30 7661 O 753.977 0.705718 1.88631 0
M  V30 7662 C 751.042 1.52052 3.11579 0
M  V30 7663 C 750.103 2.74589 3.29999 0
M  V30 7664 C 749.336 2.70726 4.59938 0
M  V30 7665 O 749.559 1.77806 5.41979 0
M  V30 7666 O 748.493 3.61864 4.80976 0
M  V30 7667 H 752.319 2.52392 1.68914 0
M  V30 7668 H 749.904 1.27695 0.775528 0
M  V30 7669 H 751.786 1.52387 3.92882 0
M  V30 7670 H 750.461 0.589085 3.18295 0
M  V30 7671 H 749.368 2.79817 2.48301 0
M  V30 7672 H 750.701 3.66843 3.28157 0
M  V30 7673 N 752.353 -0.854086 1.3245 0
M  V30 7674 C 753.283 -1.97827 1.24044 0
M  V30 7675 C 754.264 -1.69646 0.124166 0
M  V30 7676 O 755.449 -1.91687 0.31143 0
M  V30 7677 C 752.579 -3.33673 0.963324 0
M  V30 7678 C 751.533 -3.76207 2.04089 0
M  V30 7679 C 750.859 -5.0969 1.61618 0
M  V30 7680 C 752.159 -3.91612 3.45597 0
M  V30 7681 H 753.853 -2.05118 2.18099 0
M  V30 7682 H 751.399 -0.985489 1.04996 0
M  V30 7683 H 753.352 -4.11871 0.891061 0
M  V30 7684 H 752.076 -3.26597 -0.0128649 0
M  V30 7685 H 750.735 -3.0026 2.10332 0
M  V30 7686 H 750.383 -4.99072 0.627418 0
M  V30 7687 H 750.083 -5.3912 2.33717 0
M  V30 7688 H 751.607 -5.90381 1.55829 0
M  V30 7689 H 753.021 -4.60163 3.4194 0
M  V30 7690 H 751.418 -4.3246 4.16051 0
M  V30 7691 H 752.488 -2.9451 3.85217 0
M  V30 7692 N 753.831 -1.1567 -1.07043 0
M  V30 7693 C 754.761 -0.879348 -2.16309 0
M  V30 7694 C 755.742 0.171311 -1.69235 0
M  V30 7695 O 756.927 0.0250175 -1.94184 0
M  V30 7696 C 754.057 -0.371307 -3.45309 0
M  V30 7697 C 753.011 -1.359 -4.05851 0
M  V30 7698 C 752.337 -0.709678 -5.29969 0
M  V30 7699 C 753.637 -2.72606 -4.45514 0
M  V30 7700 H 755.331 -1.79308 -2.39768 0
M  V30 7701 H 752.877 -0.863558 -1.15233 0
M  V30 7702 H 754.83 -0.164798 -4.21078 0
M  V30 7703 H 753.554 0.577906 -3.21446 0
M  V30 7704 H 752.213 -1.55193 -3.32131 0
M  V30 7705 H 751.861 0.245782 -5.02399 0
M  V30 7706 H 751.561 -1.36886 -5.71433 0
M  V30 7707 H 753.085 -0.513015 -6.08441 0
M  V30 7708 H 754.499 -2.57141 -5.12398 0
M  V30 7709 H 752.896 -3.34927 -4.97939 0
M  V30 7710 H 753.966 -3.28434 -3.56734 0
M  V30 7711 N 755.309 1.25446 -0.953992 0
M  V30 7712 C 756.257 2.27909 -0.46478 0
M  V30 7713 C 757.251 1.62904 0.464607 0
M  V30 7714 O 758.457 1.76733 0.341407 0
M  V30 7715 H 754.832 0.74036 -0.131798 0
M  V30 7716 H 756.803 2.66559 -1.34122 0
M  V30 7717 C 755.552 3.46853 0.242589 0
M  V30 7718 H 754.875 3.97105 -0.463418 0
M  V30 7719 H 756.315 4.20432 0.548919 0
M  V30 7720 C 754.774 3.03386 1.46487 0
M  V30 7721 O 755.304 3.09342 2.56262 0
M  V30 7722 N 753.51 2.58584 1.32599 0
M  V30 7723 H 753.057 2.53938 0.432834 0
M  V30 7724 H 753.015 2.29866 2.14497 0
M  V30 7725 N 756.787 0.722489 1.40064 0
M  V30 7726 C 758.198 0.336507 1.83642 0
M  V30 7727 C 758.549 -1.13002 1.6039 0
M  V30 7728 O 757.674 -1.87036 1.08842 0
M  V30 7729 C 758.269 0.603985 3.33373 0
M  V30 7730 C 756.828 0.271637 3.75419 0
M  V30 7731 C 755.975 0.872898 2.63203 0
M  V30 7732 H 758.926 0.921108 1.29233 0
M  V30 7733 H 758.947 -0.128471 3.80283 0
M  V30 7734 H 758.459 1.67141 3.50265 0
M  V30 7735 H 756.56 -0.790455 3.64119 0
M  V30 7736 H 756.673 0.745457 4.73265 0
M  V30 7737 H 755.037 0.300431 2.52922 0
M  V30 7738 H 755.82 1.94473 2.82905 0
M  V30 7739 N 758.265 -1.50454 0.469181 0
M  V30 7740 C 759.175 -2.32248 -0.331349 0
M  V30 7741 C 760.191 -1.42548 -0.997807 0
M  V30 7742 O 761.367 -1.75602 -0.9862 0
M  V30 7743 C 758.432 -3.17171 -1.40012 0
M  V30 7744 C 757.493 -4.2269 -0.750463 0
M  V30 7745 C 756.726 -5.03554 -1.76831 0
M  V30 7746 O 756.949 -4.85469 -2.99459 0
M  V30 7747 O 755.883 -5.86767 -1.3412 0
M  V30 7748 H 759.709 -3.01821 0.337279 0
M  V30 7749 H 757.294 -1.47602 0.231066 0
M  V30 7750 H 759.176 -3.69871 -2.01924 0
M  V30 7751 H 757.851 -2.50328 -2.05226 0
M  V30 7752 H 756.758 -3.73986 -0.0924446 0
M  V30 7753 H 758.091 -4.91997 -0.14131 0
M  V30 7754 N 759.743 -0.201713 -1.56304 0
M  V30 7755 C 761.02 0.483273 -1.89536 0
M  V30 7756 C 761.4 1.79176 -1.11621 0
M  V30 7757 O 760.748 2.27445 -0.219339 0
M  V30 7758 C 760.958 0.695604 -3.41998 0
M  V30 7759 C 762.306 1.012 -4.12364 0
M  V30 7760 O 763.33 0.783094 -3.47485 0
M  V30 7761 O 762.189 1.44534 -5.27041 0
M  V30 7762 H 759.283 0.252801 -0.787414 0
M  V30 7763 H 761.829 -0.24242 -1.6796 0
M  V30 7764 H 760.601 -0.228165 -3.90634 0
M  V30 7765 H 760.224 1.47351 -3.69288 0
M  V30 7766 N 761.222 1.57436 0.0718424 0
M  V30 7767 C 762.499 1.78312 0.804006 0
M  V30 7768 C 762.879 0.789273 1.9579 0
M  V30 7769 O 762.227 -0.177605 2.27809 0
M  V30 7770 C 762.437 3.24798 1.277 0
M  V30 7771 C 763.785 3.88627 1.71039 0
M  V30 7772 O 764.809 3.28689 1.37266 0
M  V30 7773 O 763.668 4.94073 2.33567 0
M  V30 7774 H 760.762 0.73178 0.385262 0
M  V30 7775 H 763.308 1.69621 0.0519219 0
M  V30 7776 H 762.08 3.88688 0.45134 0
M  V30 7777 H 761.703 3.38213 2.0904 0
M  V30 7778 N 762.7 -0.34323 1.53817 0
M  V30 7779 C 763.63 -1.42709 1.84814 0
M  V30 7780 C 764.611 -1.5488 0.703297 0
M  V30 7781 O 765.796 -1.69082 0.955237 0
M  V30 7782 C 762.926 -2.79756 2.05801 0
M  V30 7783 C 761.88 -2.82392 3.21619 0
M  V30 7784 C 761.206 -4.22326 3.2794 0
M  V30 7785 C 762.506 -2.479 4.59721 0
M  V30 7786 H 764.2 -1.17018 2.75585 0
M  V30 7787 H 761.746 -0.561485 1.32602 0
M  V30 7788 H 763.699 -3.55627 2.26069 0
M  V30 7789 H 762.423 -3.06883 1.11761 0
M  V30 7790 H 761.082 -2.08974 3.01207 0
M  V30 7791 H 760.73 -4.46564 2.31494 0
M  V30 7792 H 760.43 -4.25001 4.05768 0
M  V30 7793 H 761.954 -5.00039 3.50419 0
M  V30 7794 H 763.368 -3.13484 4.80001 0
M  V30 7795 H 761.765 -2.61857 5.39954 0
M  V30 7796 H 762.835 -1.43087 4.63308 0
M  V30 7797 N 764.178 -1.45556 -0.604258 0
M  V30 7798 C 765.108 -1.57327 -1.72541 0
M  V30 7799 C 766.089 -0.424637 -1.64714 0
M  V30 7800 O 767.274 -0.648196 -1.83063 0
M  V30 7801 C 764.404 -1.54279 -3.11152 0
M  V30 7802 C 763.358 -2.67893 -3.33792 0
M  V30 7803 C 762.684 -2.499 -4.72709 0
M  V30 7804 C 763.984 -4.0988 -3.23722 0
M  V30 7805 H 765.678 -2.51175 -1.62947 0
M  V30 7806 H 763.224 -1.20884 -0.782504 0
M  V30 7807 H 765.177 -1.6111 -3.89386 0
M  V30 7808 H 763.901 -0.569627 -3.21594 0
M  V30 7809 H 762.56 -2.60495 -2.57949 0
M  V30 7810 H 762.208 -1.50715 -4.79889 0
M  V30 7811 H 761.908 -3.26091 -4.88813 0
M  V30 7812 H 763.432 -2.5859 -5.5314 0
M  V30 7813 H 764.846 -4.18503 -3.91826 0
M  V30 7814 H 763.243 -4.86487 -3.51355 0
M  V30 7815 H 764.313 -4.31553 -2.21111 0
M  V30 7816 N 765.656 0.84705 -1.32902 0
M  V30 7817 C 767.067 1.41785 -1.21466 0
M  V30 7818 C 767.418 1.95464 0.169767 0
M  V30 7819 O 766.543 1.88157 1.06892 0
M  V30 7820 C 767.138 2.57734 -2.19906 0
M  V30 7821 C 765.697 3.10791 -2.12334 0
M  V30 7822 C 764.844 1.83562 -2.07847 0
M  V30 7823 H 767.795 0.653532 -1.44619 0
M  V30 7824 H 767.816 3.35123 -1.80202 0
M  V30 7825 H 767.328 2.18635 -3.20656 0
M  V30 7826 H 765.429 3.54455 -1.14858 0
M  V30 7827 H 765.542 3.71519 -3.02506 0
M  V30 7828 H 763.906 2.03475 -1.53199 0
M  V30 7829 H 764.689 1.4667 -3.10392 0
M  V30 7830 N 767.134 1.16236 1.06428 0
M  V30 7831 C 768.382 0.941171 1.78847 0
M  V30 7832 C 768.703 -0.53248 1.87589 0
M  V30 7833 O 767.973 -1.38686 1.38358 0
M  V30 7834 H 766.553 0.345228 0.66244 0
M  V30 7835 H 769.215 1.46479 1.28569 0
M  V30 7836 H 768.311 1.35871 2.80972 0
M  V30 7837 N 768.612 -1.24939 0.960631 0
M  V30 7838 C 769.559 -2.25658 0.484459 0
M  V30 7839 C 770.529 -1.59422 -0.466242 0
M  V30 7840 O 771.714 -1.87015 -0.378169 0
M  V30 7841 C 768.854 -3.44359 -0.225958 0
M  V30 7842 C 767.967 -4.25214 0.762682 0
M  V30 7843 C 767.102 -5.31192 0.0290931 0
M  V30 7844 C 766.141 -6.03739 1.00827 0
M  V30 7845 N 765.278 -7.01437 0.305155 0
M  V30 7846 H 770.118 -2.65758 1.34821 0
M  V30 7847 H 767.655 -1.30648 0.675983 0
M  V30 7848 H 769.613 -4.12035 -0.654472 0
M  V30 7849 H 768.243 -3.05118 -1.05371 0
M  V30 7850 H 767.295 -3.57144 1.30966 0
M  V30 7851 H 768.607 -4.75406 1.50964 0
M  V30 7852 H 767.761 -6.04971 -0.457763 0
M  V30 7853 H 766.5 -4.81889 -0.750614 0
M  V30 7854 H 765.505 -5.2877 1.50607 0
M  V30 7855 H 766.73 -6.55131 1.7883 0
M  V30 7856 H 764.676 -6.54415 -0.455704 0
M  V30 7857 H 764.593 -7.49475 0.991104 0
M  V30 7858 H 765.861 -7.79336 -0.159966 0
M  V30 7859 N 770.09 -0.729906 -1.39679 0
M  V30 7860 C 771.339 -0.272534 -1.9985 0
M  V30 7861 C 771.652 1.14519 -1.58571 0
M  V30 7862 O 772.858 1.70182 -2.11543 0
M  V30 7863 C 771.314 -0.436322 -3.57245 0
M  V30 7864 C 770.922 -1.86161 -4.0749 0
M  V30 7865 C 772.666 -0.0404679 -4.24481 0
M  V30 7866 C 770.573 -1.97522 -5.5744 0
M  V30 7867 H 769.503 -0.0981428 -0.747585 0
M  V30 7868 H 772.154 -0.903056 -1.59741 0
M  V30 7869 H 770.536 0.263015 -3.95126 0
M  V30 7870 H 771.71 -2.59248 -3.80955 0
M  V30 7871 H 770.025 -2.21021 -3.529 0
M  V30 7872 H 772.622 -0.104437 -5.34598 0
M  V30 7873 H 772.965 1.00357 -4.04023 0
M  V30 7874 H 773.498 -0.690774 -3.91757 0
M  V30 7875 H 770.237 -3.00096 -5.82771 0
M  V30 7876 H 769.757 -1.28864 -5.85794 0
M  V30 7877 H 771.436 -1.754 -6.22771 0
M  V30 7878 N 771.568 1.50203 -0.477153 0
M  V30 7879 C 772.984 1.59056 -0.131663 0
M  V30 7880 C 773.184 1.48473 1.36227 0
M  V30 7881 O 772.24 1.34635 2.13611 0
M  V30 7882 C 773.553 2.92741 -0.687254 0
M  V30 7883 C 775.101 3.0615 -0.651223 0
M  V30 7884 C 775.576 4.42419 -1.18446 0
M  V30 7885 N 777.067 4.48847 -1.14413 0
M  V30 7886 C 777.802 5.52689 -1.52717 0
M  V30 7887 N 777.298 6.63754 -1.98499 0
M  V30 7888 N 779.091 5.43267 -1.44282 0
M  V30 7889 H 771.242 1.55325 -1.44872 0
M  V30 7890 H 773.505 0.734395 -0.599473 0
M  V30 7891 H 773.211 3.0598 -1.73405 0
M  V30 7892 H 773.085 3.76961 -0.134215 0
M  V30 7893 H 775.472 2.92556 0.386677 0
M  V30 7894 H 775.553 2.23673 -1.24114 0
M  V30 7895 H 775.197 4.56763 -2.22103 0
M  V30 7896 H 775.127 5.23498 -0.570709 0
M  V30 7897 H 777.618 3.69152 -0.808416 0
M  V30 7898 H 777.931 7.39059 -2.25859 0
M  V30 7899 H 776.276 6.64858 -2.02456 0
M  V30 7900 H 779.467 4.55387 -1.08352 0
M  V30 7901 H 779.64 6.24074 -1.74459 0
M  V30 7902 N 773.046 0.209999 1.56195 0
M  V30 7903 C 774.323 -0.473214 1.89789 0
M  V30 7904 C 774.703 -1.78581 1.1257 0
M  V30 7905 O 774.051 -2.27325 0.231398 0
M  V30 7906 C 774.261 -0.677458 3.42362 0
M  V30 7907 C 775.609 -0.990114 4.12895 0
M  V30 7908 O 776.633 -0.764655 3.47896 0
M  V30 7909 O 775.492 -1.41737 5.278 0
M  V30 7910 H 772.586 -0.248622 0.788743 0
M  V30 7911 H 775.132 0.251324 1.67829 0
M  V30 7912 H 773.904 0.248878 3.90508 0
M  V30 7913 H 773.527 -1.45391 3.70064 0
M  V30 7914 N 774.524 -1.57472 -0.0634922 0
M  V30 7915 C 775.749 -1.92273 -0.77756 0
M  V30 7916 C 776.174 -0.807141 -1.69902 0
M  V30 7917 O 775.532 0.239523 -1.79711 0
M  V30 7918 C 775.58 -3.26054 -1.54017 0
M  V30 7919 O 774.684 -3.15873 -2.65138 0
M  V30 7920 H 774.025 -0.629389 -0.211579 0
M  V30 7921 H 776.555 -2.04579 -0.0292523 0
M  V30 7922 H 776.565 -3.60127 -1.91763 0
M  V30 7923 H 775.24 -4.06824 -0.864128 0
M  V30 7924 H 773.817 -2.93373 -2.30189 0
M  V30 7925 N 776.003 0.335068 -1.53997 0
M  V30 7926 C 776.951 1.43206 -1.83289 0
M  V30 7927 C 777.945 1.54081 -0.703953 0
M  V30 7928 O 779.151 1.56603 -0.887432 0
M  V30 7929 H 775.526 0.477655 -0.580818 0
M  V30 7930 H 777.497 1.15719 -2.75049 0
M  V30 7931 C 776.246 2.79602 -2.06683 0
M  V30 7932 H 775.569 2.72004 -2.93008 0
M  V30 7933 H 777.009 3.55459 -2.31139 0
M  V30 7934 C 775.468 3.25873 -0.854883 0
M  V30 7935 O 775.998 4.01657 -0.0584648 0
M  V30 7936 N 774.204 2.82777 -0.669729 0
M  V30 7937 H 773.751 2.21269 -1.31901 0
M  V30 7938 H 773.709 3.1409 0.13969 0
M  V30 7939 N 777.481 1.45874 0.596531 0
M  V30 7940 C 778.897 1.30524 0.918459 0
M  V30 7941 C 779.097 0.266429 1.99731 0
M  V30 7942 O 778.153 -0.335809 2.50257 0
M  V30 7943 C 779.466 2.68747 1.3489 0
M  V30 7944 C 781.014 2.7673 1.46251 0
M  V30 7945 C 781.489 4.15504 1.92667 0
M  V30 7946 N 782.98 4.17853 1.99883 0
M  V30 7947 C 783.715 5.22109 2.37044 0
M  V30 7948 N 783.211 6.36704 2.73094 0
M  V30 7949 N 785.004 5.09471 2.37479 0
M  V30 7950 H 777.155 2.12081 -0.116368 0
M  V30 7951 H 779.418 0.947941 0.0106033 0
M  V30 7952 H 779.124 3.46006 0.630288 0
M  V30 7953 H 778.998 2.97942 2.31323 0
M  V30 7954 H 781.385 1.99768 2.17202 0
M  V30 7955 H 781.466 2.51236 0.481054 0
M  V30 7956 H 781.11 4.92956 1.223 0
M  V30 7957 H 781.04 4.38396 2.91747 0
M  V30 7958 H 783.531 3.35163 1.74568 0
M  V30 7959 H 783.844 7.12041 3.00362 0
M  V30 7960 H 782.189 6.40087 2.70764 0
M  V30 7961 H 785.38 4.18987 2.08728 0
M  V30 7962 H 785.553 5.90837 2.66112 0
M  V30 7963 N 778.959 -0.83999 1.33349 0
M  V30 7964 C 780.184 -1.63249 1.27924 0
M  V30 7965 C 780.609 -1.87523 -0.147193 0
M  V30 7966 O 779.967 -1.43853 -1.10345 0
M  V30 7967 C 780.015 -2.96046 2.05886 0
M  V30 7968 O 779.119 -3.87303 1.4167 0
M  V30 7969 H 778.46 -0.49715 0.440157 0
M  V30 7970 H 780.99 -1.04512 1.75893 0
M  V30 7971 H 781 -3.45752 2.16609 0
M  V30 7972 H 779.675 -2.77701 3.09605 0
M  V30 7973 H 778.252 -3.45789 1.39585 0
M  V30 7974 N 780.437 -1.16799 -1.0581 0
M  V30 7975 C 781.665 -0.97687 -1.82387 0
M  V30 7976 C 782.08 0.474917 -1.82729 0
M  V30 7977 O 781.437 1.3297 -1.25001 0
M  V30 7978 C 781.488 -1.50279 -3.28783 0
M  V30 7979 O 781.209 -2.89772 -3.28578 0
M  V30 7980 C 782.71 -1.35538 -4.22071 0
M  V30 7981 H 779.93 -0.345977 -0.574927 0
M  V30 7982 H 782.474 -1.54942 -1.33466 0
M  V30 7983 H 780.629 -0.972414 -3.74997 0
M  V30 7984 H 781.043 -3.13954 -4.20159 0
M  V30 7985 H 782.517 -1.7716 -5.22799 0
M  V30 7986 H 782.994 -0.301598 -4.38163 0
M  V30 7987 H 783.6 -1.87562 -3.81708 0
M  V30 7988 N 781.915 1.24427 -0.967243 0
M  V30 7989 C 782.845 2.2773 -0.515899 0
M  V30 7990 C 783.826 1.64197 0.444227 0
M  V30 7991 O 785.011 1.91193 0.340451 0
M  V30 7992 C 782.141 3.46751 0.195149 0
M  V30 7993 C 781.095 4.22548 -0.680953 0
M  V30 7994 C 780.421 5.34456 0.161561 0
M  V30 7995 C 781.721 4.83914 -1.96532 0
M  V30 7996 H 783.415 2.65735 -1.37933 0
M  V30 7997 H 780.961 1.27742 -0.664681 0
M  V30 7998 H 782.914 4.18153 0.522117 0
M  V30 7999 H 781.638 3.07771 1.09292 0
M  V30 8000 H 780.297 3.52946 -0.991186 0
M  V30 8001 H 779.945 4.91716 1.05947 0
M  V30 8002 H 779.645 5.86087 -0.421418 0
M  V30 8003 H 781.169 6.08685 0.483211 0
M  V30 8004 H 782.583 5.47392 -1.70396 0
M  V30 8005 H 780.98 5.45775 -2.49499 0
M  V30 8006 H 782.05 4.05393 -2.66053 0
M  V30 8007 N 783.393 0.737304 1.3929 0
M  V30 8008 C 784.323 0.113988 2.33222 0
M  V30 8009 C 785.304 -0.721695 1.54031 0
M  V30 8010 O 786.489 -0.666206 1.82415 0
M  V30 8011 C 783.619 -0.792319 3.38141 0
M  V30 8012 C 782.573 -0.0606178 4.27957 0
M  V30 8013 C 781.899 -1.08409 5.23595 0
M  V30 8014 C 783.199 1.09817 5.10625 0
M  V30 8015 H 784.893 0.898611 2.85596 0
M  V30 8016 H 782.439 0.433571 1.37318 0
M  V30 8017 H 784.392 -1.23793 4.02807 0
M  V30 8018 H 783.116 -1.60908 2.84211 0
M  V30 8019 H 781.775 0.365393 3.64775 0
M  V30 8020 H 781.423 -1.89449 4.6596 0
M  V30 8021 H 781.123 -0.599269 5.84536 0
M  V30 8022 H 782.647 -1.52936 5.91137 0
M  V30 8023 H 784.061 0.730892 5.68622 0
M  V30 8024 H 782.458 1.51278 5.80719 0
M  V30 8025 H 783.528 1.91878 4.45321 0
M  V30 8026 N 784.871 -1.49948 0.485112 0
M  V30 8027 C 785.834 -2.27351 -0.290546 0
M  V30 8028 C 786.834 -1.32704 -0.908087 0
M  V30 8029 O 788.024 -1.56007 -0.775085 0
M  V30 8030 C 785.156 -3.10135 -1.41524 0
M  V30 8031 H 786.349 -2.97374 0.388454 0
M  V30 8032 H 783.902 -1.54453 0.239586 0
M  V30 8033 H 784.637 -2.44641 -2.12888 0
M  V30 8034 H 784.422 -3.79705 -0.978074 0
M  V30 8035 H 785.912 -3.68638 -1.96204 0
M  V30 8036 N 786.349 -0.21828 -1.56081 0
M  V30 8037 C 787.577 0.419258 -2.02608 0
M  V30 8038 C 787.992 1.53578 -1.09814 0
M  V30 8039 O 787.349 1.82185 -0.107149 0
M  V30 8040 C 787.4 0.953955 -3.48686 0
M  V30 8041 O 787.121 -0.11805 -4.37941 0
M  V30 8042 C 788.622 1.66506 -4.10841 0
M  V30 8043 H 785.842 0.10296 -0.663054 0
M  V30 8044 H 788.386 -0.333776 -2.01758 0
M  V30 8045 H 786.541 1.65727 -3.50162 0
M  V30 8046 H 786.955 0.283359 -5.23734 0
M  V30 8047 H 788.429 1.99123 -5.14834 0
M  V30 8048 H 788.906 2.57705 -3.55647 0
M  V30 8049 H 789.512 1.00703 -4.13206 0
M  V30 8050 N 787.827 1.57504 0.0551401 0
M  V30 8051 C 789.076 1.87237 0.750009 0
M  V30 8052 C 789.389 0.813268 1.77891 0
M  V30 8053 O 790.595 0.99898 2.52453 0
M  V30 8054 C 789.051 3.32187 1.38491 0
M  V30 8055 C 788.659 4.46267 0.393707 0
M  V30 8056 C 790.403 3.71101 2.06117 0
M  V30 8057 C 788.31 5.82265 1.03547 0
M  V30 8058 H 787.24 0.698524 0.283866 0
M  V30 8059 H 789.891 1.835 0.00365997 0
M  V30 8060 H 788.273 3.30588 2.18008 0
M  V30 8061 H 789.447 4.59289 -0.372865 0
M  V30 8062 H 787.762 4.16015 -0.17902 0
M  V30 8063 H 790.359 4.70012 2.54937 0
M  V30 8064 H 790.702 3.01751 2.86796 0
M  V30 8065 H 791.235 3.74762 1.33409 0
M  V30 8066 H 787.974 6.54949 0.268644 0
M  V30 8067 H 787.494 5.73012 1.7725 0
M  V30 8068 H 789.173 6.28148 1.55047 0
M  V30 8069 N 789.305 -0.326896 1.54172 0
M  V30 8070 C 790.237 -1.42319 1.79661 0
M  V30 8071 C 791.25 -1.47989 0.678456 0
M  V30 8072 O 792.439 -1.50773 0.955503 0
M  V30 8073 C 789.539 -2.80876 1.89636 0
M  V30 8074 C 788.712 -2.98449 3.19761 0
M  V30 8075 C 787.771 -4.17347 3.2048 0
M  V30 8076 O 786.797 -4.10667 3.94134 0
M  V30 8077 N 787.999 -5.26717 2.44027 0
M  V30 8078 H 790.764 -1.20819 2.74268 0
M  V30 8079 H 788.325 -0.516866 1.53428 0
M  V30 8080 H 790.317 -3.58619 1.87549 0
M  V30 8081 H 788.887 -2.95442 1.02141 0
M  V30 8082 H 788.107 -2.08035 3.34836 0
M  V30 8083 H 789.395 -3.07083 4.05681 0
M  V30 8084 H 788.793 -5.35019 1.8377 0
M  V30 8085 H 787.35 -6.02891 2.47721 0
M  V30 8086 N 790.784 -1.46188 -0.588786 0
M  V30 8087 C 791.694 -1.58865 -1.72624 0
M  V30 8088 C 792.71 -0.472348 -1.67466 0
M  V30 8089 O 793.886 -0.735638 -1.87484 0
M  V30 8090 C 790.951 -1.56989 -3.0912 0
M  V30 8091 C 790.012 -2.79804 -3.25589 0
M  V30 8092 C 789.245 -2.78009 -4.55573 0
M  V30 8093 O 789.468 -1.86406 -5.39082 0
M  V30 8094 O 788.402 -3.6947 -4.75159 0
M  V30 8095 H 792.228 -2.55047 -1.64878 0
M  V30 8096 H 789.813 -1.28912 -0.755115 0
M  V30 8097 H 791.695 -1.58618 -3.90408 0
M  V30 8098 H 790.37 -0.639648 -3.17317 0
M  V30 8099 H 789.277 -2.83732 -2.43818 0
M  V30 8100 H 790.61 -3.72017 -3.22279 0
M  V30 8101 N 792.262 0.832906 -1.33792 0
M  V30 8102 C 793.212 1.93178 -1.21105 0
M  V30 8103 C 794.196 1.60506 -0.112491 0
M  V30 8104 O 795.388 1.73681 -0.341179 0
M  V30 8105 C 792.517 3.29647 -0.958526 0
M  V30 8106 C 791.603 3.68469 -2.0998 0
M  V30 8107 N 791.994 3.78936 -3.35024 0
M  V30 8108 C 790.292 3.98249 -2.00782 0
M  V30 8109 C 790.993 4.12731 -4.09912 0
M  V30 8110 N 789.969 4.25419 -3.38407 0
M  V30 8111 H 793.771 1.99434 -2.15878 0
M  V30 8112 H 791.285 1.02598 -1.25886 0
M  V30 8113 H 793.282 4.08173 -0.848552 0
M  V30 8114 H 791.942 3.24694 -0.019387 0
M  V30 8115 H 792.953 3.62688 -3.69699 0
M  V30 8116 H 789.63 4.01474 -1.14564 0
M  V30 8117 H 791.02 4.28117 -5.17847 0
M  V30 8118 N 793.74 1.17359 1.05189 0
M  V30 8119 C 794.988 0.960087 1.77839 0
M  V30 8120 C 795.309 -0.512554 1.88143 0
M  V30 8121 O 794.579 -1.3721 1.39822 0
M  V30 8122 H 793.159 0.352234 0.658741 0
M  V30 8123 H 795.821 1.47834 1.27008 0
M  V30 8124 H 794.917 1.38843 2.79516 0
M  V30 8125 N 795.218 -1.23913 0.973828 0
M  V30 8126 C 796.448 -1.95911 0.655938 0
M  V30 8127 C 796.856 -1.72375 -0.779967 0
M  V30 8128 O 796.199 -1.00807 -1.5357 0
M  V30 8129 C 796.261 -3.49103 0.858324 0
M  V30 8130 C 795.925 -3.96347 2.27504 0
M  V30 8131 C 796.922 -4.05537 3.25324 0
M  V30 8132 C 794.607 -4.29509 2.60437 0
M  V30 8133 C 796.601 -4.47233 4.5416 0
M  V30 8134 C 794.288 -4.70887 3.89498 0
M  V30 8135 C 795.286 -4.79714 4.86172 0
M  V30 8136 O 794.974 -5.20166 6.1293 0
M  V30 8137 H 794.706 -0.630721 0.243244 0
M  V30 8138 H 797.26 -1.58534 1.30599 0
M  V30 8139 H 795.49 -3.86405 0.151097 0
M  V30 8140 H 797.179 -4.02311 0.538592 0
M  V30 8141 H 797.945 -3.80128 3.0121 0
M  V30 8142 H 793.824 -4.21853 1.85906 0
M  V30 8143 H 797.368 -4.54038 5.29618 0
M  V30 8144 H 793.265 -4.95744 4.1341 0
M  V30 8145 H 794.033 -5.38298 6.16586 0
M  V30 8146 N 796.696 -0.74468 -1.38897 0
M  V30 8147 C 798.107 -0.36568 -1.83084 0
M  V30 8148 C 798.458 1.10436 -1.62168 0
M  V30 8149 O 797.583 1.85281 -1.11804 0
M  V30 8150 C 798.178 -0.656946 -3.3237 0
M  V30 8151 C 796.737 -0.331329 -3.74939 0
M  V30 8152 C 795.884 -0.914661 -2.61781 0
M  V30 8153 H 798.835 -0.941551 -1.27752 0
M  V30 8154 H 798.856 0.0679546 -3.80439 0
M  V30 8155 H 798.368 -1.72693 -3.47561 0
M  V30 8156 H 796.469 0.732426 -3.6533 0
M  V30 8157 H 796.582 -0.820655 -4.72019 0
M  V30 8158 H 794.946 -0.34063 -2.52412 0
M  V30 8159 H 795.729 -1.98949 -2.79775 0
M  V30 8160 N 798.174 1.49689 -0.493057 0
M  V30 8161 C 799.402 2.06836 0.0513141 0
M  V30 8162 C 799.817 1.35436 1.31539 0
M  V30 8163 O 799.174 0.430248 1.77356 0
M  V30 8164 C 799.225 3.60107 0.317003 0
M  V30 8165 O 798.946 4.2882 -0.896957 0
M  V30 8166 C 800.447 4.33945 0.905902 0
M  V30 8167 H 797.667 0.670787 -0.0169048 0
M  V30 8168 H 800.211 1.92574 -0.688139 0
M  V30 8169 H 798.366 3.74099 1.00642 0
M  V30 8170 H 798.78 5.20395 -0.654939 0
M  V30 8171 H 800.254 5.42087 1.04144 0
M  V30 8172 H 800.731 3.95895 1.90168 0
M  V30 8173 H 801.337 4.2454 0.254195 0
M  V30 8174 N 799.652 0.226554 1.55963 0
M  V30 8175 C 800.901 -0.40417 1.97609 0
M  V30 8176 C 801.214 -1.60541 1.1174 0
M  V30 8177 O 802.42 -2.30598 1.43307 0
M  V30 8178 C 800.876 -0.770466 3.51556 0
M  V30 8179 C 800.484 0.408244 4.46136 0
M  V30 8180 C 802.228 -1.36651 4.01904 0
M  V30 8181 C 800.135 0.0192347 5.91397 0
M  V30 8182 H 799.065 -0.15478 0.737943 0
M  V30 8183 H 801.716 0.323558 1.80625 0
M  V30 8184 H 800.098 -1.55575 3.6416 0
M  V30 8185 H 801.272 1.18575 4.45283 0
M  V30 8186 H 799.587 0.917859 4.06158 0
M  V30 8187 H 802.184 -1.67055 5.07934 0
M  V30 8188 H 802.527 -2.28403 3.48049 0
M  V30 8189 H 803.06 -0.644556 3.92543 0
M  V30 8190 H 799.799 0.90336 6.49245 0
M  V30 8191 H 799.319 -0.722485 5.95433 0
M  V30 8192 H 800.998 -0.405711 6.45727 0
M  V30 8193 N 801.13 -1.57531 -0.0467866 0
M  V30 8194 C 802.078 -2.06455 -1.0714 0
M  V30 8195 C 803.072 -0.974744 -1.38546 0
M  V30 8196 O 804.278 -1.15974 -1.37659 0
M  V30 8197 H 800.653 -0.658607 -0.362962 0
M  V30 8198 H 802.624 -2.91613 -0.632813 0
M  V30 8199 C 801.373 -2.54481 -2.36927 0
M  V30 8200 H 800.696 -3.37946 -2.13617 0
M  V30 8201 H 802.136 -2.92442 -3.07007 0
M  V30 8202 C 800.595 -1.43836 -3.04652 0
M  V30 8203 O 801.125 -0.794531 -3.93764 0
M  V30 8204 N 799.331 -1.17727 -2.65686 0
M  V30 8205 H 798.878 -1.70265 -1.93307 0
M  V30 8206 H 798.836 -0.439051 -3.11319 0
M  V30 8207 N 802.608 0.318715 -1.54344 0
M  V30 8208 C 803.538 1.39751 -1.87061 0
M  V30 8209 C 804.519 1.53741 -0.727848 0
M  V30 8210 O 805.704 1.67541 -0.982016 0
M  V30 8211 C 802.834 2.76446 -2.10226 0
M  V30 8212 C 801.788 2.77239 -3.26071 0
M  V30 8213 C 801.114 4.17056 -3.34617 0
M  V30 8214 C 802.414 2.40555 -4.63606 0
M  V30 8215 H 804.108 1.12619 -2.77412 0
M  V30 8216 H 801.654 0.540318 -1.33479 0
M  V30 8217 H 803.607 3.51985 -2.31699 0
M  V30 8218 H 802.331 3.05066 -1.16629 0
M  V30 8219 H 800.99 2.04155 -3.04493 0
M  V30 8220 H 800.638 4.42824 -2.3857 0
M  V30 8221 H 800.338 4.18492 -4.12478 0
M  V30 8222 H 801.862 4.94401 -3.5833 0
M  V30 8223 H 803.276 3.05808 -4.84927 0
M  V30 8224 H 801.673 2.53234 -5.44052 0
M  V30 8225 H 802.743 1.35698 -4.65526 0
M  V30 8226 N 804.086 1.46499 0.581025 0
M  V30 8227 C 805.334 1.51596 1.33653 0
M  V30 8228 C 805.655 0.169859 1.94259 0
M  V30 8229 O 804.925 -0.803776 1.78651 0
M  V30 8230 H 803.505 0.558346 0.496244 0
M  V30 8231 H 806.167 1.8264 0.680338 0
M  V30 8232 H 805.263 2.26956 2.14237 0
M  V30 8233 N 805.565 -0.825799 1.34232 0
M  V30 8234 C 806.814 -1.57686 1.2577 0
M  V30 8235 C 807.127 -1.94848 -0.171372 0
M  V30 8236 O 808.333 -2.68854 -0.378123 0
M  V30 8237 C 806.789 -2.84478 2.20454 0
M  V30 8238 C 806.397 -2.54629 3.68603 0
M  V30 8239 C 808.141 -3.625 2.20893 0
M  V30 8240 C 806.048 -3.77597 4.55164 0
M  V30 8241 H 804.978 -0.591809 0.467203 0
M  V30 8242 H 807.629 -0.909421 1.59379 0
M  V30 8243 H 806.011 -3.52832 1.79793 0
M  V30 8244 H 807.185 -1.94404 4.17784 0
M  V30 8245 H 805.5 -1.89888 3.70582 0
M  V30 8246 H 808.097 -4.538 2.82789 0
M  V30 8247 H 808.44 -3.98404 1.20746 0
M  V30 8248 H 808.973 -3.01086 2.59985 0
M  V30 8249 H 805.712 -3.46815 5.56237 0
M  V30 8250 H 805.232 -4.37116 4.10719 0
M  V30 8251 H 806.911 -4.45039 4.69627 0
M  V30 8252 N 807.043 -1.17915 -1.04565 0
M  V30 8253 C 808.289 -0.972863 -1.77942 0
M  V30 8254 C 808.622 0.496753 -1.87739 0
M  V30 8255 O 807.897 1.3688 -1.38181 0
M  V30 8256 C 808.18 -1.62227 -3.21488 0
M  V30 8257 C 808.033 -3.16441 -3.19664 0
M  V30 8258 C 809.352 -1.33137 -4.19479 0
M  V30 8259 H 806.471 -0.354843 -0.645953 0
M  V30 8260 H 809.113 -1.45508 -1.22178 0
M  V30 8261 H 807.263 -1.21224 -3.69103 0
M  V30 8262 H 808.935 -3.66544 -2.80077 0
M  V30 8263 H 807.178 -3.48863 -2.57832 0
M  V30 8264 H 807.849 -3.57012 -4.21006 0
M  V30 8265 H 810.325 -1.68654 -3.80388 0
M  V30 8266 H 809.201 -1.81151 -5.18146 0
M  V30 8267 H 809.462 -0.253319 -4.41374 0
M  V30 8268 N 808.521 1.23394 -0.980386 0
M  V30 8269 C 809.769 1.91431 -0.647978 0
M  V30 8270 C 810.09 1.76871 0.821066 0
M  V30 8271 O 809.36 1.14808 1.58732 0
M  V30 8272 H 807.94 0.708516 -0.236673 0
M  V30 8273 H 810.602 1.50019 -1.2442 0
M  V30 8274 H 809.698 2.98854 -0.899592 0
M  V30 8275 N 809.999 0.752036 1.385 0
M  V30 8276 C 811.276 0.233075 1.94206 0
M  V30 8277 C 811.656 -1.26838 1.68746 0
M  V30 8278 O 811.004 -2.04214 1.02513 0
M  V30 8279 C 811.214 0.58509 3.44061 0
M  V30 8280 C 812.562 0.543871 4.21102 0
M  V30 8281 O 813.586 0.523291 3.52335 0
M  V30 8282 O 812.445 0.553436 5.4369 0
M  V30 8283 H 809.539 0.0483049 0.825588 0
M  V30 8284 H 812.085 0.832053 1.47902 0
M  V30 8285 H 810.857 1.62212 3.56094 0
M  V30 8286 H 810.48 -0.0419738 3.97578 0
M  V30 8287 N 811.477 -1.49425 0.500989 0
M  V30 8288 C 812.425 -2.30771 -0.291149 0
M  V30 8289 C 813.419 -1.3938 -0.962787 0
M  V30 8290 O 814.625 -1.56431 -0.890477 0
M  V30 8291 H 811 -0.743499 -0.11275 0
M  V30 8292 H 812.971 -2.95501 0.414917 0
M  V30 8293 C 811.72 -3.20725 -1.34279 0
M  V30 8294 H 811.043 -3.90975 -0.83538 0
M  V30 8295 H 812.483 -3.80583 -1.86903 0
M  V30 8296 C 810.942 -2.40334 -2.36095 0
M  V30 8297 O 811.472 -2.10749 -3.41976 0
M  V30 8298 N 809.678 -2.02359 -2.08565 0
M  V30 8299 H 809.225 -2.26619 -1.22482 0
M  V30 8300 H 809.183 -1.48878 -2.76916 0
M  V30 8301 N 812.955 -0.234822 -1.55841 0
M  V30 8302 C 814.366 0.270588 -1.84729 0
M  V30 8303 C 814.717 1.58494 -1.15646 0
M  V30 8304 O 813.842 2.12071 -0.430667 0
M  V30 8305 C 814.437 0.497733 -3.35124 0
M  V30 8306 C 812.996 0.947428 -3.64281 0
M  V30 8307 C 812.143 0.01787 -2.77294 0
M  V30 8308 H 815.094 -0.457691 -1.51957 0
M  V30 8309 H 815.115 1.34199 -3.56049 0
M  V30 8310 H 814.627 -0.459037 -3.85376 0
M  V30 8311 H 812.728 1.91709 -3.19497 0
M  V30 8312 H 812.841 0.812651 -4.72158 0
M  V30 8313 H 811.205 0.527071 -2.49187 0
M  V30 8314 H 811.988 -0.934056 -3.30349 0
M  V30 8315 N 814.433 1.57553 0.0384317 0
M  V30 8316 C 815.71 1.79977 0.766002 0
M  V30 8317 C 816.09 0.830625 1.94072 0
M  V30 8318 O 815.438 -0.129243 2.28134 0
M  V30 8319 C 815.648 3.27434 1.20781 0
M  V30 8320 C 816.996 3.92167 1.62758 0
M  V30 8321 O 818.02 3.31527 1.30263 0
M  V30 8322 O 816.879 4.98917 2.23035 0
M  V30 8323 H 813.973 0.739787 0.369654 0
M  V30 8324 H 816.519 1.69693 0.0159312 0
M  V30 8325 H 815.291 3.89558 0.368792 0
M  V30 8326 H 814.914 3.42571 2.01819 0
M  V30 8327 N 815.911 -0.310526 1.54511 0
M  V30 8328 C 817.188 -1.06593 1.64004 0
M  V30 8329 C 817.568 -2.05519 0.482216 0
M  V30 8330 O 816.916 -2.22455 -0.52212 0
M  V30 8331 C 817.126 -1.75627 3.01589 0
M  V30 8332 C 818.474 -2.28173 3.58081 0
M  V30 8333 O 819.498 -1.85674 3.03979 0
M  V30 8334 O 818.357 -3.06015 4.52788 0
M  V30 8335 H 815.451 -0.492109 0.664649 0
M  V30 8336 H 817.997 -0.309374 1.66856 0
M  V30 8337 H 816.769 -1.03743 3.77297 0
M  V30 8338 H 816.392 -2.58061 3.02473 0
M  V30 8339 N 817.389 -1.46805 -0.573248 0
M  V30 8340 C 818.319 -1.60951 -1.69165 0
M  V30 8341 C 819.3 -0.45948 -1.63777 0
M  V30 8342 O 820.485 -0.68688 -1.81647 0
M  V30 8343 C 817.615 -1.60844 -3.07809 0
M  V30 8344 C 816.569 -2.74913 -3.28035 0
M  V30 8345 C 815.895 -2.59871 -4.67302 0
M  V30 8346 C 817.195 -4.16654 -3.14955 0
M  V30 8347 H 818.889 -2.54574 -1.57582 0
M  V30 8348 H 816.435 -1.22516 -0.756686 0
M  V30 8349 H 818.388 -1.69334 -3.85881 0
M  V30 8350 H 817.112 -0.637714 -3.20314 0
M  V30 8351 H 815.771 -2.65908 -2.52366 0
M  V30 8352 H 815.419 -1.60861 -4.76585 0
M  V30 8353 H 815.119 -3.36386 -4.81786 0
M  V30 8354 H 816.643 -2.70265 -5.4753 0
M  V30 8355 H 818.057 -4.26721 -3.82861 0
M  V30 8356 H 816.454 -4.93831 -3.40956 0
M  V30 8357 H 817.524 -4.36146 -2.11908 0
M  V30 8358 N 818.867 0.818669 -1.34668 0
M  V30 8359 C 819.797 1.94468 -1.29245 0
M  V30 8360 C 820.778 1.69257 -0.169101 0
M  V30 8361 O 821.963 1.90794 -0.362143 0
M  V30 8362 C 819.093 3.31001 -1.05145 0
M  V30 8363 C 818.047 3.70663 -2.13992 0
M  V30 8364 C 817.373 5.05226 -1.75074 0
M  V30 8365 C 818.673 3.82312 -3.55858 0
M  V30 8366 H 820.367 1.99263 -2.2346 0
M  V30 8367 H 817.913 0.957304 -1.07572 0
M  V30 8368 H 819.866 4.09364 -0.999949 0
M  V30 8369 H 818.59 3.26517 -0.0737312 0
M  V30 8370 H 817.249 2.94578 -2.18219 0
M  V30 8371 H 816.897 4.97233 -0.759518 0
M  V30 8372 H 816.597 5.32734 -2.47928 0
M  V30 8373 H 818.121 5.86042 -1.71427 0
M  V30 8374 H 819.535 4.50935 -3.5402 0
M  V30 8375 H 817.932 4.21278 -4.2737 0
M  V30 8376 H 819.002 2.84193 -3.9289 0
M  V30 8377 N 820.346 1.18468 1.03938 0
M  V30 8378 C 821.294 0.909286 2.14091 0
M  V30 8379 C 822.288 -0.130928 1.68893 0
M  V30 8380 O 823.494 0.0173403 1.79992 0
M  V30 8381 H 819.869 0.27658 0.699291 0
M  V30 8382 H 821.84 1.84514 2.34515 0
M  V30 8383 C 820.589 0.452922 3.44737 0
M  V30 8384 H 819.912 1.24485 3.79926 0
M  V30 8385 H 821.352 0.299238 4.22943 0
M  V30 8386 C 819.811 -0.831435 3.26479 0
M  V30 8387 O 820.341 -1.89535 3.54174 0
M  V30 8388 N 818.547 -0.784545 2.79809 0
M  V30 8389 H 818.094 0.0814746 2.57471 0
M  V30 8390 H 818.052 -1.64431 2.67973 0
M  V30 8391 N 821.824 -1.22873 0.986916 0
M  V30 8392 C 822.787 -2.2281 0.537442 0
M  V30 8393 C 823.787 -1.56331 -0.37646 0
M  V30 8394 O 824.977 -1.73376 -0.169247 0
M  V30 8395 C 822.109 -3.40195 -0.219082 0
M  V30 8396 H 823.302 -2.64089 1.42116 0
M  V30 8397 H 820.855 -1.35819 0.773488 0
M  V30 8398 H 821.59 -3.04381 -1.11905 0
M  V30 8399 H 821.375 -3.89657 0.437026 0
M  V30 8400 H 822.865 -4.14326 -0.521926 0
M  V30 8401 N 823.302 -0.75937 -1.38099 0
M  V30 8402 C 824.232 -0.151077 -2.33011 0
M  V30 8403 C 825.213 0.697099 -1.5516 0
M  V30 8404 O 826.398 0.637101 -1.83452 0
M  V30 8405 C 823.528 0.738423 -3.39359 0
M  V30 8406 C 822.482 -0.0074741 -4.27999 0
M  V30 8407 C 821.808 1.00066 -5.25253 0
M  V30 8408 C 823.108 -1.17926 -5.08813 0
M  V30 8409 H 824.802 -0.943933 -2.84131 0
M  V30 8410 H 822.348 -0.455362 -1.36611 0
M  V30 8411 H 824.301 1.17369 -4.04725 0
M  V30 8412 H 823.025 1.56366 -2.86735 0
M  V30 8413 H 821.684 -0.423379 -3.64147 0
M  V30 8414 H 821.332 1.82012 -4.68914 0
M  V30 8415 H 821.032 0.506199 -5.85416 0
M  V30 8416 H 822.556 1.43512 -5.93495 0
M  V30 8417 H 823.97 -0.821262 -5.67387 0
M  V30 8418 H 822.367 -1.60497 -5.78239 0
M  V30 8419 H 823.437 -1.98938 -4.42212 0
M  V30 8420 N 824.78 1.49157 -0.508906 0
M  V30 8421 C 825.728 2.30922 0.278906 0
M  V30 8422 C 826.722 1.39889 0.955382 0
M  V30 8423 O 827.928 1.56901 0.882169 0
M  V30 8424 H 824.303 0.744087 0.108805 0
M  V30 8425 H 826.274 2.95277 -0.430583 0
M  V30 8426 C 825.023 3.21432 1.32576 0
M  V30 8427 H 824.346 3.91413 0.814634 0
M  V30 8428 H 825.786 3.81568 1.84882 0
M  V30 8429 C 824.245 2.41583 2.34817 0
M  V30 8430 O 824.775 2.1256 3.40854 0
M  V30 8431 N 822.981 2.03462 2.07489 0
M  V30 8432 H 822.528 2.27265 1.21278 0
M  V30 8433 H 822.486 1.50345 2.76123 0
M  V30 8434 N 826.258 0.243083 1.55714 0
M  V30 8435 C 827.168 -0.668913 2.24862 0
M  V30 8436 C 828.184 -1.19638 1.26344 0
M  V30 8437 O 829.36 -1.23345 1.5921 0
M  V30 8438 C 826.425 -1.85084 2.93163 0
M  V30 8439 C 825.486 -1.36323 4.07081 0
M  V30 8440 C 824.719 -2.48882 4.72116 0
M  V30 8441 O 824.942 -3.67523 4.36214 0
M  V30 8442 O 823.876 -2.18857 5.60701 0
M  V30 8443 H 827.702 -0.109737 3.03502 0
M  V30 8444 H 825.287 0.0117411 1.49395 0
M  V30 8445 H 827.169 -2.54065 3.36197 0
M  V30 8446 H 825.844 -2.39771 2.17466 0
M  V30 8447 H 824.751 -0.640804 3.68571 0
M  V30 8448 H 826.084 -0.86249 4.84584 0
M  V30 8449 N 827.736 -1.57571 -0.0300757 0
M  V30 8450 C 828.984 -1.88852 -0.719666 0
M  V30 8451 C 829.305 -0.840645 -1.75949 0
M  V30 8452 O 828.575 0.125854 -1.95495 0
M  V30 8453 H 827.155 -0.696965 -0.268792 0
M  V30 8454 H 829.817 -1.949 0.00373285 0
M  V30 8455 H 828.913 -2.87695 -1.20987 0
M  V30 8456 N 829.214 0.302327 -1.54673 0
M  V30 8457 C 830.463 1.03533 -1.73101 0
M  V30 8458 C 830.776 1.88473 -0.523174 0
M  V30 8459 O 831.982 2.65029 -0.589229 0
M  V30 8460 C 830.438 1.89043 -3.06252 0
M  V30 8461 C 830.046 1.09112 -4.3451 0
M  V30 8462 C 831.79 2.61951 -3.34039 0
M  V30 8463 C 829.697 1.93891 -5.58713 0
M  V30 8464 H 828.627 0.390261 -0.645145 0
M  V30 8465 H 831.278 0.2924 -1.81155 0
M  V30 8466 H 829.66 2.67319 -2.92159 0
M  V30 8467 H 830.834 0.354596 -4.59434 0
M  V30 8468 H 829.149 0.477923 -4.13648 0
M  V30 8469 H 831.746 3.25729 -4.24033 0
M  V30 8470 H 832.089 3.30711 -2.52855 0
M  V30 8471 H 832.622 1.90725 -3.49097 0
M  V30 8472 H 829.361 1.29604 -6.4256 0
M  V30 8473 H 828.881 2.6522 -5.37976 0
M  V30 8474 H 830.56 2.51971 -5.95919 0
M  V30 8475 N 830.692 1.47107 0.565454 0
M  V30 8476 C 831.917 1.57153 1.35343 0
M  V30 8477 C 832.342 0.219247 1.86818 0
M  V30 8478 O 831.7 -0.803539 1.62521 0
M  V30 8479 C 831.748 2.59387 2.50501 0
M  V30 8480 O 830.852 2.14086 3.52478 0
M  V30 8481 H 830.193 0.528209 0.402357 0
M  V30 8482 H 832.723 1.92821 0.684189 0
M  V30 8483 H 832.733 2.79546 2.97184 0
M  V30 8484 H 831.408 3.57579 2.12391 0
M  V30 8485 H 829.985 2.03991 3.12157 0
M  V30 8486 N 832.17 -0.811516 1.35101 0
M  V30 8487 C 833.586 -1.10634 1.15031 0
M  V30 8488 C 833.786 -2.01459 -0.0405379 0
M  V30 8489 O 832.842 -2.42235 -0.712635 0
M  V30 8490 C 834.155 -1.74207 2.45097 0
M  V30 8491 C 835.703 -1.8665 2.51258 0
M  V30 8492 C 836.178 -2.53638 3.81355 0
M  V30 8493 N 837.669 -2.61128 3.82579 0
M  V30 8494 C 838.404 -3.13717 4.79968 0
M  V30 8495 N 837.9 -3.66782 5.87744 0
M  V30 8496 N 839.693 -3.12224 4.67411 0
M  V30 8497 H 831.844 -0.207641 2.11383 0
M  V30 8498 H 834.107 -0.154697 0.935293 0
M  V30 8499 H 833.813 -1.14936 3.32389 0
M  V30 8500 H 833.687 -2.73958 2.59281 0
M  V30 8501 H 836.074 -2.45066 1.64398 0
M  V30 8502 H 836.155 -0.857678 2.40993 0
M  V30 8503 H 835.799 -1.95873 4.68611 0
M  V30 8504 H 835.729 -3.55047 3.88907 0
M  V30 8505 H 838.22 -2.23527 3.04703 0
M  V30 8506 H 838.533 -4.05194 6.58056 0
M  V30 8507 H 836.878 -3.64994 5.91443 0
M  V30 8508 H 840.069 -2.70042 3.82354 0
M  V30 8509 H 840.242 -3.52903 5.43474 0
M  V30 8510 N 833.648 -1.19017 -1.03309 0
M  V30 8511 C 834.611 -0.926076 -2.09658 0
M  V30 8512 C 835.611 0.0917077 -1.60538 0
M  V30 8513 O 836.801 -0.142574 -1.73616 0
M  V30 8514 C 833.933 -0.390958 -3.38651 0
M  V30 8515 H 835.126 -1.86923 -2.3452 0
M  V30 8516 H 832.679 -1.00325 -1.19853 0
M  V30 8517 H 833.414 0.558446 -3.19456 0
M  V30 8518 H 833.199 -1.12474 -3.75622 0
M  V30 8519 H 834.689 -0.225131 -4.16993 0
M  V30 8520 N 835.127 1.22348 -0.993418 0
M  V30 8521 C 836.404 1.86632 -0.585495 0
M  V30 8522 C 836.784 1.89156 0.937187 0
M  V30 8523 O 836.132 1.38247 1.81934 0
M  V30 8524 C 836.342 3.27481 -1.20652 0
M  V30 8525 C 837.69 4.03971 -1.30738 0
M  V30 8526 O 838.714 3.3675 -1.16096 0
M  V30 8527 O 837.573 5.24302 -1.54173 0
M  V30 8528 H 834.667 0.802704 -0.198984 0
M  V30 8529 H 837.213 1.30122 -1.08933 0
M  V30 8530 H 835.985 3.20281 -2.24802 0
M  V30 8531 H 835.608 3.91597 -0.688312 0
M  V30 8532 N 836.605 0.766683 1.37694 0
M  V30 8533 C 837.851 0.329201 2.0011 0
M  V30 8534 C 838.184 -1.09004 1.60723 0
M  V30 8535 O 837.459 -1.74895 0.850989 0
M  V30 8536 C 837.742 0.466989 3.57059 0
M  V30 8537 C 837.595 1.92828 4.06371 0
M  V30 8538 C 838.914 -0.131792 4.39903 0
M  V30 8539 H 836.033 0.12109 0.726984 0
M  V30 8540 H 838.675 0.968779 1.63446 0
M  V30 8541 H 836.825 -0.0775023 3.88423 0
M  V30 8542 H 838.497 2.53208 3.85595 0
M  V30 8543 H 836.74 2.43884 3.58752 0
M  V30 8544 H 837.411 1.97577 5.15429 0
M  V30 8545 H 839.887 0.332731 4.14768 0
M  V30 8546 H 838.763 -0.005217 5.489 0
M  V30 8547 H 839.024 -1.22156 4.24889 0
M  V30 8548 N 838.083 -1.48885 0.516809 0
M  V30 8549 C 839.332 -2.01686 -0.0239899 0
M  V30 8550 C 839.645 -1.40029 -1.3657 0
M  V30 8551 O 840.851 -1.84249 -1.9941 0
M  V30 8552 C 839.307 -3.59779 -0.0931825 0
M  V30 8553 C 838.915 -4.30416 1.24283 0
M  V30 8554 C 840.659 -4.20471 -0.583507 0
M  V30 8555 C 838.566 -5.80408 1.13494 0
M  V30 8556 H 837.496 -0.753892 -0.0127376 0
M  V30 8557 H 840.147 -1.71273 0.65861 0
M  V30 8558 H 838.529 -3.86976 -0.840577 0
M  V30 8559 H 839.703 -4.14905 2.00476 0
M  V30 8560 H 838.018 -3.81539 1.66785 0
M  V30 8561 H 840.615 -5.30333 -0.681987 0
M  V30 8562 H 840.958 -3.84898 -1.58617 0
M  V30 8563 H 841.491 -3.97654 0.107814 0
M  V30 8564 H 838.23 -6.20532 2.11235 0
M  V30 8565 H 837.75 -5.98368 0.414167 0
M  V30 8566 H 839.429 -6.41781 0.820162 0
M  V30 8567 N 839.561 -0.251338 -1.55583 0
M  V30 8568 C 840.81 0.372681 -1.98227 0
M  V30 8569 C 841.123 1.58743 -1.1428 0
M  V30 8570 O 842.329 2.28289 -1.46957 0
M  V30 8571 C 840.785 0.714439 -3.52738 0
M  V30 8572 C 840.393 -0.479168 -4.4543 0
M  V30 8573 C 842.137 1.3024 -4.04027 0
M  V30 8574 C 840.044 -0.113318 -5.91291 0
M  V30 8575 H 838.974 0.14302 -0.740312 0
M  V30 8576 H 841.625 -0.352253 -1.80087 0
M  V30 8577 H 840.007 1.49762 -3.66589 0
M  V30 8578 H 841.181 -1.25644 -4.4334 0
M  V30 8579 H 839.496 -0.982359 -4.04646 0
M  V30 8580 H 842.093 1.58953 -5.10527 0
M  V30 8581 H 842.436 2.22837 -3.51638 0
M  V30 8582 H 842.969 0.582024 -3.93519 0
M  V30 8583 H 839.708 -1.00654 -6.47726 0
M  V30 8584 H 839.228 0.627666 -5.96507 0
M  V30 8585 H 840.907 0.30293 -6.4629 0
M  V30 8586 N 841.039 1.57585 0.0217189 0
M  V30 8587 C 842.267 1.93871 0.722619 0
M  V30 8588 C 842.682 0.851706 1.68498 0
M  V30 8589 O 842.039 -0.17127 1.81695 0
M  V30 8590 C 842.09 3.30114 1.47333 0
M  V30 8591 O 841.811 4.34639 0.549597 0
M  V30 8592 C 843.312 3.80727 2.27072 0
M  V30 8593 H 840.532 0.639671 0.202637 0
M  V30 8594 H 843.076 2.04487 -0.0229414 0
M  V30 8595 H 841.231 3.20872 2.17071 0
M  V30 8596 H 841.645 5.13326 1.07686 0
M  V30 8597 H 843.119 4.78547 2.75131 0
M  V30 8598 H 843.596 3.12301 3.08812 0
M  V30 8599 H 844.202 3.93075 1.62395 0
M  V30 8600 N 842.517 -0.29412 1.54831 0
M  V30 8601 C 843.742 -1.05156 1.78765 0
M  V30 8602 C 844.167 -1.79916 0.548809 0
M  V30 8603 O 843.525 -1.74243 -0.500909 0
M  V30 8604 C 843.573 -2.00242 2.99893 0
M  V30 8605 O 842.677 -3.08662 2.73499 0
M  V30 8606 H 842.018 -0.301737 0.591482 0
M  V30 8607 H 844.548 -0.329449 2.0193 0
M  V30 8608 H 844.558 -2.42583 3.28051 0
M  V30 8609 H 843.233 -1.45235 3.89717 0
M  V30 8610 H 841.81 -2.70786 2.56377 0
M  V30 8611 N 843.995 -1.47404 -0.557645 0
M  V30 8612 C 845.243 -1.53703 -1.31224 0
M  V30 8613 C 845.564 -0.200742 -1.93964 0
M  V30 8614 O 844.834 0.775253 -1.79907 0
M  V30 8615 H 843.414 -0.566171 -0.487299 0
M  V30 8616 H 846.076 -1.83699 -0.651195 0
M  V30 8617 H 845.172 -2.30335 -2.10599 0
M  V30 8618 N 845.473 0.80434 -1.35529 0
M  V30 8619 C 846.721 1.55845 -1.28673 0
M  V30 8620 C 847.042 1.94511 0.137976 0
M  V30 8621 O 846.312 1.63775 1.07492 0
M  V30 8622 H 844.892 0.577931 -0.473291 0
M  V30 8623 H 847.554 0.959293 -1.69657 0
M  V30 8624 H 846.65 2.47285 -1.90411 0
M  V30 8625 N 846.951 1.19563 1.02676 0
M  V30 8626 C 848.197 1.00105 1.76371 0
M  V30 8627 C 848.53 -0.466823 1.88506 0
M  V30 8628 O 847.805 -1.34665 1.40341 0
M  V30 8629 C 848.088 1.67321 3.18866 0
M  V30 8630 C 847.941 3.21486 3.1459 0
M  V30 8631 C 849.26 1.39794 4.17308 0
M  V30 8632 H 846.379 0.365075 0.640226 0
M  V30 8633 H 849.021 1.47433 1.19848 0
M  V30 8634 H 847.171 1.27081 3.67128 0
M  V30 8635 H 848.843 3.70953 2.7421 0
M  V30 8636 H 847.086 3.5292 2.52249 0
M  V30 8637 H 847.757 3.63665 4.15273 0
M  V30 8638 H 850.233 1.74685 3.77657 0
M  V30 8639 H 849.109 1.89371 5.15199 0
M  V30 8640 H 849.37 0.323505 4.40915 0
M  V30 8641 N 848.429 -1.21819 0.999893 0
M  V30 8642 C 849.654 -1.95298 0.698094 0
M  V30 8643 C 850.079 -1.73273 -0.731982 0
M  V30 8644 O 849.437 -1.01634 -1.50134 0
M  V30 8645 C 849.485 -3.45922 1.01834 0
M  V30 8646 O 848.589 -4.12223 0.120801 0
M  V30 8647 H 847.93 -0.610729 0.260588 0
M  V30 8648 H 850.46 -1.5472 1.33876 0
M  V30 8649 H 850.47 -3.96471 0.963074 0
M  V30 8650 H 849.145 -3.61278 2.06037 0
M  V30 8651 H 847.722 -3.72177 0.232153 0
M  V30 8652 N 849.908 -0.773975 -1.37286 0
M  V30 8653 C 850.841 -0.108019 -2.27944 0
M  V30 8654 C 851.819 0.706737 -1.46438 0
M  V30 8655 O 853.003 0.681025 -1.75768 0
M  V30 8656 C 850.13 0.853199 -3.27778 0
M  V30 8657 C 849.176 0.122164 -4.26325 0
M  V30 8658 S 850.009 -1.19136 -5.22079 0
M  V30 8659 C 851.165 -0.233737 -6.25463 0
M  V30 8660 H 851.398 -0.876743 -2.84078 0
M  V30 8661 H 848.931 -0.567468 -1.43594 0
M  V30 8662 H 850.889 1.40238 -3.85803 0
M  V30 8663 H 849.55 1.59505 -2.70586 0
M  V30 8664 H 848.743 0.850926 -4.96765 0
M  V30 8665 H 848.345 -0.356079 -3.72301 0
M  V30 8666 H 850.637 0.59305 -6.74899 0
M  V30 8667 H 851.58 -0.906373 -7.02275 0
M  V30 8668 H 851.988 0.156048 -5.64284 0
M  V30 8669 N 851.386 1.48609 -0.524698 0
M  V30 8670 C 852.634 2.02097 0.0112991 0
M  V30 8671 C 852.955 1.40455 1.35268 0
M  V30 8672 O 852.225 0.56807 1.87483 0
M  V30 8673 H 850.805 0.746966 0.00716426 0
M  V30 8674 H 853.467 1.82378 -0.687329 0
M  V30 8675 H 852.563 3.11855 0.123531 0
M  V30 8676 N 852.864 0.259585 1.55447 0
M  V30 8677 C 853.774 -0.645026 2.25558 0
M  V30 8678 C 854.79 -1.18291 1.27606 0
M  V30 8679 O 855.966 -1.21649 1.6051 0
M  V30 8680 C 853.031 -1.81964 2.9511 0
M  V30 8681 C 852.092 -1.31997 4.08504 0
M  V30 8682 C 851.325 -2.43861 4.74729 0
M  V30 8683 O 851.548 -3.62876 4.40088 0
M  V30 8684 O 850.482 -2.12898 5.6299 0
M  V30 8685 H 854.308 -0.0775399 3.03601 0
M  V30 8686 H 851.893 0.0275859 1.49375 0
M  V30 8687 H 853.775 -2.50485 3.38873 0
M  V30 8688 H 852.45 -2.37451 2.19997 0
M  V30 8689 H 851.357 -0.601676 3.6923 0
M  V30 8690 H 852.69 -0.811045 4.85472 0
M  V30 8691 N 854.342 -1.57594 -0.0133615 0
M  V30 8692 C 855.289 -2.07574 -1.00905 0
M  V30 8693 C 856.259 -0.968231 -1.34961 0
M  V30 8694 O 857.444 -1.23981 -1.45028 0
M  V30 8695 C 854.584 -2.5728 -2.30002 0
M  V30 8696 C 853.697 -3.81881 -2.01967 0
M  V30 8697 C 852.832 -4.20139 -3.25049 0
M  V30 8698 C 851.871 -5.37614 -2.92639 0
M  V30 8699 N 851.008 -5.71229 -4.08218 0
M  V30 8700 H 855.848 -2.92382 -0.575899 0
M  V30 8701 H 853.385 -1.4455 -0.272722 0
M  V30 8702 H 855.343 -2.84171 -3.05454 0
M  V30 8703 H 853.973 -1.75365 -2.71011 0
M  V30 8704 H 853.025 -3.61979 -1.16942 0
M  V30 8705 H 854.337 -4.67441 -1.74069 0
M  V30 8706 H 853.491 -4.48242 -4.08857 0
M  V30 8707 H 852.23 -3.33262 -3.56073 0
M  V30 8708 H 851.235 -5.09248 -2.07235 0
M  V30 8709 H 852.46 -6.26157 -2.62876 0
M  V30 8710 H 850.406 -4.8731 -4.39164 0
M  V30 8711 H 850.323 -6.51333 -3.83799 0
M  V30 8712 H 851.591 -6.03917 -4.92854 0
M  V30 8713 N 855.82 0.285905 -1.54985 0
M  V30 8714 C 857.097 1.0397 -1.65679 0
M  V30 8715 C 857.477 2.04725 -0.514851 0
M  V30 8716 O 856.825 2.23257 0.486663 0
M  V30 8717 C 857.035 1.70807 -3.04345 0
M  V30 8718 C 858.383 2.22447 -3.61666 0
M  V30 8719 O 859.407 1.80815 -3.06895 0
M  V30 8720 O 858.266 2.98773 -4.57599 0
M  V30 8721 H 855.36 0.481473 -0.672394 0
M  V30 8722 H 857.906 0.282789 -1.67327 0
M  V30 8723 H 856.678 0.977271 -3.789 0
M  V30 8724 H 856.301 2.53217 -3.06541 0
M  V30 8725 N 857.298 1.47698 0.54982 0
M  V30 8726 C 858.528 1.58101 1.32995 0
M  V30 8727 C 858.936 0.232939 1.87761 0
M  V30 8728 O 858.279 -0.785058 1.6608 0
M  V30 8729 C 858.341 2.55228 2.53178 0
M  V30 8730 C 858.005 4.00756 2.19645 0
M  V30 8731 C 859.002 4.89025 1.76496 0
M  V30 8732 C 856.687 4.46147 2.30777 0
M  V30 8733 C 858.681 6.20707 1.44919 0
M  V30 8734 C 856.368 5.77856 1.98812 0
M  V30 8735 C 857.366 6.64957 1.55952 0
M  V30 8736 O 857.054 7.94217 1.24396 0
M  V30 8737 H 856.786 0.536362 0.411451 0
M  V30 8738 H 859.34 1.94092 0.67212 0
M  V30 8739 H 857.57 2.14319 3.21876 0
M  V30 8740 H 859.259 2.55678 3.15251 0
M  V30 8741 H 860.025 4.55201 1.67383 0
M  V30 8742 H 855.904 3.78552 2.63096 0
M  V30 8743 H 859.448 6.88649 1.11392 0
M  V30 8744 H 855.345 6.11219 2.0756 0
M  V30 8745 H 856.113 8.06789 1.37964 0
M  V30 8746 N 858.776 -0.797141 1.35954 0
M  V30 8747 C 859.706 -1.92387 1.32323 0
M  V30 8748 C 860.687 -1.68967 0.196007 0
M  V30 8749 O 861.872 -1.90193 0.39245 0
M  V30 8750 C 859.002 -3.29286 1.10398 0
M  V30 8751 C 857.956 -3.67212 2.19862 0
M  V30 8752 C 857.282 -5.02377 1.8309 0
M  V30 8753 C 858.582 -3.76602 3.61896 0
M  V30 8754 H 860.276 -1.95683 2.26602 0
M  V30 8755 H 857.822 -0.94007 1.09081 0
M  V30 8756 H 859.775 -4.07721 1.06495 0
M  V30 8757 H 858.499 -3.26358 0.125668 0
M  V30 8758 H 857.158 -2.91069 2.22878 0
M  V30 8759 H 856.806 -4.95961 0.838527 0
M  V30 8760 H 856.506 -5.28722 2.56372 0
M  V30 8761 H 858.03 -5.8324 1.80729 0
M  V30 8762 H 859.444 -4.45246 3.6115 0
M  V30 8763 H 857.841 -4.14425 4.34018 0
M  V30 8764 H 858.911 -2.77906 3.97361 0
M  V30 8765 N 860.254 -1.20106 -1.0204 0
M  V30 8766 C 861.201 -0.946468 -2.10501 0
M  V30 8767 C 862.171 0.121902 -1.65652 0
M  V30 8768 O 863.356 -0.0220244 -1.90787 0
M  V30 8769 C 860.496 -0.500499 -3.41451 0
M  V30 8770 C 859.609 -1.63659 -3.998 0
M  V30 8771 C 858.744 -1.14131 -5.18794 0
M  V30 8772 C 857.783 -2.25074 -5.69217 0
M  V30 8773 N 856.92 -1.76791 -6.79477 0
M  V30 8774 H 861.76 -1.87506 -2.31615 0
M  V30 8775 H 859.297 -0.934693 -1.13587 0
M  V30 8776 H 861.255 -0.223276 -4.16602 0
M  V30 8777 H 859.885 0.391099 -3.20422 0
M  V30 8778 H 858.937 -2.02882 -3.21781 0
M  V30 8779 H 860.249 -2.47213 -4.33229 0
M  V30 8780 H 859.403 -0.819826 -6.01135 0
M  V30 8781 H 858.142 -0.275615 -4.86921 0
M  V30 8782 H 857.147 -2.58043 -4.85483 0
M  V30 8783 H 858.372 -3.12114 -6.03127 0
M  V30 8784 H 856.318 -0.925428 -6.4944 0
M  V30 8785 H 856.235 -2.53928 -7.12079 0
M  V30 8786 H 857.503 -1.47631 -7.65392 0
M  V30 8787 N 861.732 1.21287 -1.00634 0
M  V30 8788 C 862.664 2.2308 -0.526094 0
M  V30 8789 C 863.677 1.58157 0.386031 0
M  V30 8790 O 864.866 1.77528 0.186016 0
M  V30 8791 C 861.966 3.37937 0.255289 0
M  V30 8792 C 861.139 4.32449 -0.656236 0
M  V30 8793 C 860.198 5.26145 0.0757714 0
M  V30 8794 O 859.224 5.66601 -0.543325 0
M  V30 8795 N 860.426 5.6449 1.35391 0
M  V30 8796 H 863.191 2.64913 -1.40147 0
M  V30 8797 H 860.752 1.35724 -0.882641 0
M  V30 8798 H 862.744 3.97614 0.753977 0
M  V30 8799 H 861.314 2.95078 1.03187 0
M  V30 8800 H 860.534 3.70892 -1.3354 0
M  V30 8801 H 861.822 4.92526 -1.27653 0
M  V30 8802 H 861.22 5.33617 1.878 0
M  V30 8803 H 859.777 6.26524 1.79753 0
M  V30 8804 N 863.21 0.781244 1.36873 0
M  V30 8805 C 864.456 0.350407 1.9975 0
M  V30 8806 C 864.789 -1.07293 1.6187 0
M  V30 8807 O 864.064 -1.73983 0.869491 0
M  V30 8808 C 864.347 0.504834 3.56544 0
M  V30 8809 C 864.2 1.97127 4.04303 0
M  V30 8810 C 865.519 -0.0851272 4.40018 0
M  V30 8811 H 862.638 0.128794 0.725659 0
M  V30 8812 H 865.28 0.98606 1.6241 0
M  V30 8813 H 863.43 -0.0363006 3.88483 0
M  V30 8814 H 865.102 2.57284 3.82887 0
M  V30 8815 H 863.345 2.47676 3.56145 0
M  V30 8816 H 864.016 2.03033 5.13305 0
M  V30 8817 H 866.492 0.376704 4.14391 0
M  V30 8818 H 865.368 0.0530015 5.48874 0
M  V30 8819 H 865.629 -1.17642 4.2616 0
M  V30 8820 N 864.689 -1.48329 0.532571 0
M  V30 8821 C 865.619 -2.32485 -0.217511 0
M  V30 8822 C 866.6 -1.42255 -0.932598 0
M  V30 8823 O 867.785 -1.7114 -0.917873 0
M  V30 8824 C 864.915 -3.23509 -1.26329 0
M  V30 8825 C 863.869 -4.22784 -0.666191 0
M  V30 8826 C 863.195 -5.0296 -1.81482 0
M  V30 8827 C 864.495 -5.21031 0.363813 0
M  V30 8828 H 866.189 -2.95445 0.485014 0
M  V30 8829 H 863.735 -1.42075 0.234694 0
M  V30 8830 H 865.688 -3.81211 -1.79601 0
M  V30 8831 H 864.412 -2.58554 -1.99543 0
M  V30 8832 H 863.071 -3.66272 -0.15498 0
M  V30 8833 H 862.719 -4.34427 -2.5354 0
M  V30 8834 H 862.419 -5.70154 -1.4212 0
M  V30 8835 H 863.943 -5.63514 -2.35126 0
M  V30 8836 H 865.357 -5.73241 -0.0819079 0
M  V30 8837 H 863.754 -5.96292 0.674956 0
M  V30 8838 H 864.824 -4.6801 1.26865 0
M  V30 8839 N 866.167 -0.267825 -1.55308 0
M  V30 8840 C 867.444 0.402449 -1.91415 0
M  V30 8841 C 867.824 1.7428 -1.1912 0
M  V30 8842 O 867.172 2.2631 -0.315609 0
M  V30 8843 C 867.382 0.549926 -3.4464 0
M  V30 8844 C 868.73 0.836188 -4.16285 0
M  V30 8845 O 869.754 0.635009 -3.50494 0
M  V30 8846 O 868.613 1.22051 -5.32697 0
M  V30 8847 H 865.707 0.219177 -0.797427 0
M  V30 8848 H 868.253 -0.313439 -1.6678 0
M  V30 8849 H 867.025 -0.393641 -3.89315 0
M  V30 8850 H 866.648 1.31556 -3.75205 0
M  V30 8851 N 867.645 1.57599 0.00500368 0
M  V30 8852 C 868.894 1.89528 0.690061 0
M  V30 8853 C 869.207 0.869451 1.75214 0
M  V30 8854 O 870.413 1.07879 2.49147 0
M  V30 8855 C 868.869 3.36425 1.27852 0
M  V30 8856 C 868.477 4.47293 0.251531 0
M  V30 8857 C 870.221 3.77471 1.94206 0
M  V30 8858 C 868.128 5.85264 0.8497 0
M  V30 8859 H 867.058 0.707201 0.2615 0
M  V30 8860 H 869.709 1.83418 -0.0547209 0
M  V30 8861 H 868.091 3.37356 2.07381 0
M  V30 8862 H 869.265 4.5787 -0.518796 0
M  V30 8863 H 867.58 4.15235 -0.311281 0
M  V30 8864 H 870.177 4.77884 2.39855 0
M  V30 8865 H 870.52 3.10722 2.77051 0
M  V30 8866 H 871.053 3.78817 1.21419 0
M  V30 8867 H 867.792 6.55472 0.0601408 0
M  V30 8868 H 867.312 5.78361 1.5893 0
M  V30 8869 H 868.991 6.32762 1.34984 0
M  V30 8870 N 869.123 -0.277682 1.55134 0
M  V30 8871 C 870.4 -1.0309 1.66228 0
M  V30 8872 C 870.78 -2.0445 0.525701 0
M  V30 8873 O 870.128 -2.23512 -0.474816 0
M  V30 8874 C 870.338 -1.6919 3.05247 0
M  V30 8875 C 871.686 -2.20526 3.62841 0
M  V30 8876 O 872.71 -1.79185 3.07849 0
M  V30 8877 O 871.569 -2.96342 4.59177 0
M  V30 8878 H 868.663 -0.4779 0.674937 0
M  V30 8879 H 871.209 -0.273912 1.67475 0
M  V30 8880 H 869.981 -0.957163 3.79413 0
M  V30 8881 H 869.604 -2.51587 3.07879 0
M  V30 8882 N 870.601 -1.47988 -0.541979 0
M  V30 8883 C 871.531 -1.64503 -1.65713 0
M  V30 8884 C 872.512 -0.494116 -1.62765 0
M  V30 8885 O 873.697 -0.725256 -1.80149 0
M  V30 8886 C 870.827 -1.67337 -3.04328 0
M  V30 8887 C 869.781 -2.81809 -3.2213 0
M  V30 8888 C 869.107 -2.69724 -4.61685 0
M  V30 8889 C 870.407 -4.23241 -3.06046 0
M  V30 8890 H 872.101 -2.5786 -1.52147 0
M  V30 8891 H 869.647 -1.24094 -0.730529 0
M  V30 8892 H 871.6 -1.77481 -3.82202 0
M  V30 8893 H 870.324 -0.705514 -3.18889 0
M  V30 8894 H 868.983 -2.71201 -2.46669 0
M  V30 8895 H 868.631 -1.70934 -4.73065 0
M  V30 8896 H 868.331 -3.4653 -4.74543 0
M  V30 8897 H 869.855 -2.81818 -5.41674 0
M  V30 8898 H 871.269 -4.34746 -3.73723 0
M  V30 8899 H 869.666 -5.00952 -3.30405 0
M  V30 8900 H 870.736 -4.40543 -2.02609 0
M  V30 8901 N 872.079 0.78992 -1.36375 0
M  V30 8902 C 873.029 1.89227 -1.27189 0
M  V30 8903 C 874.013 1.60067 -0.163498 0
M  V30 8904 O 875.205 1.72507 -0.396262 0
M  V30 8905 C 872.334 3.26431 -1.06292 0
M  V30 8906 C 871.42 3.61602 -2.21596 0
M  V30 8907 N 871.811 3.68086 -3.4691 0
M  V30 8908 C 870.109 3.9166 -2.1335 0
M  V30 8909 C 870.81 3.99481 -4.22835 0
M  V30 8910 N 869.786 4.14438 -3.5177 0
M  V30 8911 H 873.588 1.92465 -2.22113 0
M  V30 8912 H 871.102 0.985414 -1.29087 0
M  V30 8913 H 873.099 4.05267 -0.97798 0
M  V30 8914 H 871.759 3.24468 -0.122676 0
M  V30 8915 H 872.77 3.50743 -3.81051 0
M  V30 8916 H 869.447 3.97626 -1.27279 0
M  V30 8917 H 870.837 4.11425 -5.31205 0
M  V30 8918 N 873.557 1.20646 1.01402 0
M  V30 8919 C 874.52 0.959314 2.08158 0
M  V30 8920 C 875.52 -0.0661558 1.60664 0
M  V30 8921 O 876.71 0.170177 1.73367 0
M  V30 8922 C 873.842 0.444785 3.37986 0
M  V30 8923 H 875.035 1.90631 2.31517 0
M  V30 8924 H 872.588 1.02219 1.18241 0
M  V30 8925 H 873.323 -0.507553 3.20304 0
M  V30 8926 H 873.108 1.18435 3.73785 0
M  V30 8927 H 874.598 0.291443 4.16582 0
M  V30 8928 N 875.035 -1.20752 1.01276 0
M  V30 8929 C 875.967 -2.22798 0.537917 0
M  V30 8930 C 876.98 -1.5836 -0.377638 0
M  V30 8931 O 878.169 -1.77624 -0.176599 0
M  V30 8932 C 875.269 -3.38068 -0.237364 0
M  V30 8933 C 874.442 -4.32095 0.679161 0
M  V30 8934 C 873.501 -5.26178 -0.0478676 0
M  V30 8935 O 872.527 -5.66305 0.573366 0
M  V30 8936 N 873.729 -5.65201 -1.32396 0
M  V30 8937 H 876.494 -2.64166 1.4155 0
M  V30 8938 H 874.055 -1.35254 0.889826 0
M  V30 8939 H 876.047 -3.98009 -0.73288 0
M  V30 8940 H 874.617 -2.95622 -1.0162 0
M  V30 8941 H 873.837 -3.70179 1.35505 0
M  V30 8942 H 875.125 -4.91842 1.30263 0
M  V30 8943 H 874.523 -5.34606 -1.84968 0
M  V30 8944 H 873.08 -6.27468 -1.76428 0
M  V30 8945 N 876.513 -0.788492 -1.36457 0
M  V30 8946 C 877.762 -0.357052 -1.98515 0
M  V30 8947 C 878.075 1.0769 -1.63285 0
M  V30 8948 O 879.281 1.61057 -2.1857 0
M  V30 8949 C 877.737 -0.587449 -3.55073 0
M  V30 8950 C 877.345 -2.03276 -3.99228 0
M  V30 8951 C 879.089 -0.220468 -4.23927 0
M  V30 8952 C 876.996 -2.20987 -5.48561 0
M  V30 8953 H 875.926 -0.129762 -0.74275 0
M  V30 8954 H 878.577 -0.969995 -1.55767 0
M  V30 8955 H 876.959 0.0951918 -3.95886 0
M  V30 8956 H 878.133 -2.75173 -3.69617 0
M  V30 8957 H 876.448 -2.3579 -3.43208 0
M  V30 8958 H 879.045 -0.331085 -5.33674 0
M  V30 8959 H 879.388 0.831306 -4.07915 0
M  V30 8960 H 879.921 -0.856309 -3.88474 0
M  V30 8961 H 876.66 -3.24543 -5.69519 0
M  V30 8962 H 876.18 -1.53594 -5.79801 0
M  V30 8963 H 877.859 -2.01656 -6.14771 0
M  V30 8964 N 877.991 1.48044 -0.54043 0
M  V30 8965 C 878.941 2.26768 0.236657 0
M  V30 8966 C 879.925 1.33341 0.900505 0
M  V30 8967 O 881.117 1.57809 0.801584 0
M  V30 8968 C 878.246 3.18685 1.27651 0
M  V30 8969 C 877.332 4.19589 0.616923 0
M  V30 8970 N 877.723 5.04889 -0.303377 0
M  V30 8971 C 876.021 4.37375 0.872879 0
M  V30 8972 C 876.722 5.77654 -0.684905 0
M  V30 8973 N 875.698 5.43583 -0.0435728 0
M  V30 8974 H 879.5 2.90098 -0.471183 0
M  V30 8975 H 877.014 1.58378 -0.359183 0
M  V30 8976 H 879.011 3.73752 1.84702 0
M  V30 8977 H 877.671 2.56911 1.98562 0
M  V30 8978 H 878.682 5.13461 -0.676591 0
M  V30 8979 H 875.359 3.86784 1.57177 0
M  V30 8980 H 876.749 6.56285 -1.44015 0
M  V30 8981 N 879.47 0.276058 1.55163 0
M  V30 8982 C 880.717 -0.340455 1.99618 0
M  V30 8983 C 881.045 -1.5579 1.16446 0
M  V30 8984 O 880.3 -1.94433 0.222359 0
M  V30 8985 C 880.599 -0.765744 3.491 0
M  V30 8986 C 880.265 0.347174 4.49561 0
M  V30 8987 C 878.927 0.65276 4.76752 0
M  V30 8988 C 881.279 1.09705 5.09523 0
M  V30 8989 C 878.607 1.71179 5.61173 0
M  V30 8990 C 880.959 2.14581 5.95095 0
M  V30 8991 C 879.623 2.45773 6.20606 0
M  V30 8992 H 878.893 -0.124581 0.730452 0
M  V30 8993 H 881.54 0.389966 1.87487 0
M  V30 8994 H 879.845 -1.57585 3.58712 0
M  V30 8995 H 881.542 -1.25352 3.80904 0
M  V30 8996 H 878.132 0.0988779 4.28486 0
M  V30 8997 H 882.316 0.874223 4.8854 0
M  V30 8998 H 877.572 1.95846 5.79184 0
M  V30 8999 H 881.746 2.7316 6.40591 0
M  V30 9000 H 879.373 3.27969 6.85813 0
M  V30 9001 N 880.948 -1.576 0.00335426 0
M  V30 9002 C 882.196 -1.90336 -0.679446 0
M  V30 9003 C 882.517 -0.877777 -1.74127 0
M  V30 9004 O 881.787 0.0843585 -1.95718 0
M  V30 9005 H 880.367 -0.702509 -0.253948 0
M  V30 9006 H 883.029 -1.94848 0.0450731 0
M  V30 9007 H 882.125 -2.90197 -1.14857 0
M  V30 9008 N 882.426 0.269451 -1.5528 0
M  V30 9009 C 883.842 0.616827 -1.47199 0
M  V30 9010 C 884.042 1.89354 -0.68901 0
M  V30 9011 O 883.098 2.51631 -0.209287 0
M  V30 9012 C 884.411 0.740492 -2.9144 0
M  V30 9013 C 885.959 0.834312 -3.01676 0
M  V30 9014 C 886.434 0.989725 -4.47178 0
M  V30 9015 N 887.925 1.05516 -4.51022 0
M  V30 9016 C 888.66 1.19427 -5.60825 0
M  V30 9017 N 888.156 1.30035 -6.80487 0
M  V30 9018 N 889.949 1.22566 -5.48575 0
M  V30 9019 H 882.1 -0.568962 -2.04638 0
M  V30 9020 H 884.363 -0.193153 -0.928114 0
M  V30 9021 H 884.069 -0.127234 -3.5147 0
M  V30 9022 H 883.943 1.61965 -3.40657 0
M  V30 9023 H 886.33 1.6925 -2.4174 0
M  V30 9024 H 886.411 -0.0695298 -2.55705 0
M  V30 9025 H 886.055 0.136179 -5.07717 0
M  V30 9026 H 885.985 1.90827 -4.90808 0
M  V30 9027 H 888.476 0.985434 -3.64825 0
M  V30 9028 H 888.789 1.40494 -7.59922 0
M  V30 9029 H 887.134 1.27033 -6.83292 0
M  V30 9030 H 890.325 1.13911 -4.54029 0
M  V30 9031 H 890.498 1.33063 -6.34191 0
M  V30 9032 N 883.904 1.48273 0.534124 0
M  V30 9033 C 885.15 1.56311 1.29208 0
M  V30 9034 C 885.483 0.234481 1.92779 0
M  V30 9035 O 884.758 -0.759143 1.79073 0
M  V30 9036 C 885.041 2.69831 2.3846 0
M  V30 9037 C 884.894 4.12385 1.79608 0
M  V30 9038 C 886.213 2.79133 3.40254 0
M  V30 9039 H 883.332 0.56899 0.468422 0
M  V30 9040 H 885.974 1.80429 0.595438 0
M  V30 9041 H 884.124 2.49397 2.97881 0
M  V30 9042 H 885.796 4.44246 1.24269 0
M  V30 9043 H 884.039 4.19579 1.10162 0
M  V30 9044 H 884.71 4.87629 2.58693 0
M  V30 9045 H 887.186 2.97632 2.90783 0
M  V30 9046 H 886.062 3.60298 4.14097 0
M  V30 9047 H 886.323 1.87122 4.00547 0
M  V30 9048 N 885.382 -0.782676 1.36792 0
M  V30 9049 C 886.629 -1.54083 1.31395 0
M  V30 9050 C 886.957 -1.94217 -0.104797 0
M  V30 9051 O 886.212 -1.63491 -1.0756 0
M  V30 9052 C 886.511 -2.82542 2.18872 0
M  V30 9053 C 886.177 -2.61512 3.67317 0
M  V30 9054 C 884.839 -2.55486 4.07775 0
M  V30 9055 C 887.191 -2.42389 4.61407 0
M  V30 9056 C 884.519 -2.28311 5.40454 0
M  V30 9057 C 886.871 -2.1674 5.94312 0
M  V30 9058 C 885.535 -2.09151 6.33887 0
M  V30 9059 H 884.805 -0.563829 0.48081 0
M  V30 9060 H 887.452 -0.902436 1.68903 0
M  V30 9061 H 885.757 -3.50883 1.74323 0
M  V30 9062 H 887.454 -3.40367 2.12017 0
M  V30 9063 H 884.044 -2.67062 3.35225 0
M  V30 9064 H 888.228 -2.46043 4.31018 0
M  V30 9065 H 883.484 -2.20922 5.70091 0
M  V30 9066 H 887.658 -2.0094 6.6678 0
M  V30 9067 H 885.285 -1.87857 7.36623 0
M  V30 9068 N 886.86 -1.21182 -1.00761 0
M  V30 9069 C 887.793 -0.912033 -2.09182 0
M  V30 9070 C 888.771 0.139421 -1.62001 0
M  V30 9071 O 889.955 0.0110272 -1.88497 0
M  V30 9072 C 887.082 -0.368957 -3.36684 0
M  V30 9073 C 886.128 -1.4028 -4.0277 0
M  V30 9074 S 886.961 -2.97108 -4.45519 0
M  V30 9075 C 888.117 -2.444 -5.76211 0
M  V30 9076 H 888.35 -1.83019 -2.34289 0
M  V30 9077 H 885.883 -1.04127 -1.14004 0
M  V30 9078 H 887.841 -0.0621883 -4.10453 0
M  V30 9079 H 886.502 0.527841 -3.09633 0
M  V30 9080 H 885.695 -0.97238 -4.94531 0
M  V30 9081 H 885.297 -1.65752 -3.35265 0
M  V30 9082 H 887.589 -1.84723 -6.51831 0
M  V30 9083 H 888.532 -3.34593 -6.24062 0
M  V30 9084 H 888.94 -1.86203 -5.32906 0
M  V30 9085 N 888.338 1.20213 -1.01915 0
M  V30 9086 C 889.285 2.2309 -0.591571 0
M  V30 9087 C 890.255 1.61465 0.389649 0
M  V30 9088 O 891.44 1.88606 0.288511 0
M  V30 9089 C 888.58 3.45045 0.0614028 0
M  V30 9090 C 887.693 4.21091 -0.964688 0
M  V30 9091 C 886.828 5.30448 -0.282499 0
M  V30 9092 C 885.867 5.98241 -1.29517 0
M  V30 9093 N 885.004 6.99182 -0.639472 0
M  V30 9094 H 889.844 2.59023 -1.47347 0
M  V30 9095 H 887.381 1.27274 -0.737547 0
M  V30 9096 H 889.339 4.14688 0.45714 0
M  V30 9097 H 887.969 3.09797 0.906937 0
M  V30 9098 H 887.021 3.50489 -1.47857 0
M  V30 9099 H 888.333 4.67662 -1.73475 0
M  V30 9100 H 887.487 6.06466 0.168603 0
M  V30 9101 H 886.226 4.84922 0.519843 0
M  V30 9102 H 885.231 5.20982 -1.75663 0
M  V30 9103 H 886.456 6.45853 -2.09884 0
M  V30 9104 H 884.402 6.55844 0.142955 0
M  V30 9105 H 884.319 7.43893 -1.34756 0
M  V30 9106 H 885.587 7.79212 -0.212047 0
M  V30 9107 N 889.816 0.795718 1.36037 0
M  V30 9108 C 891.227 0.433379 1.816 0
M  V30 9109 C 891.578 -1.04341 1.66155 0
M  V30 9110 O 890.703 -1.81004 1.18603 0
M  V30 9111 C 891.298 0.77985 3.29703 0
M  V30 9112 C 889.857 0.470256 3.73451 0
M  V30 9113 C 889.004 1.01119 2.58206 0
M  V30 9114 H 891.955 0.988317 1.24169 0
M  V30 9115 H 891.976 0.0732898 3.80429 0
M  V30 9116 H 891.488 1.85473 3.40913 0
M  V30 9117 H 889.589 -0.596332 3.67797 0
M  V30 9118 H 889.702 0.995276 4.68648 0
M  V30 9119 H 888.066 0.434077 2.50974 0
M  V30 9120 H 888.849 2.09196 2.72198 0
M  V30 9121 N 891.294 -1.47756 0.548274 0
M  V30 9122 C 892.542 -2.02089 0.0208542 0
M  V30 9123 C 892.863 -1.42589 -1.33017 0
M  V30 9124 O 892.133 -0.597825 -1.86555 0
M  V30 9125 H 890.713 -0.746985 0.00472023 0
M  V30 9126 H 893.375 -1.81262 0.716257 0
M  V30 9127 H 892.471 -3.12012 -0.0739016 0
M  V30 9128 N 892.772 -0.284283 -1.55015 0
M  V30 9129 C 893.702 0.592663 -2.25853 0
M  V30 9130 C 894.683 1.15151 -1.25197 0
M  V30 9131 O 895.868 1.18395 -1.53936 0
M  V30 9132 C 892.998 1.77254 -2.98661 0
M  V30 9133 C 891.952 1.34482 -4.06323 0
M  V30 9134 C 891.278 2.60853 -4.66754 0
M  V30 9135 C 892.578 0.488288 -5.20013 0
M  V30 9136 H 894.272 0.00187041 -2.994 0
M  V30 9137 H 891.818 -0.000540402 -1.44 0
M  V30 9138 H 893.771 2.39199 -3.46932 0
M  V30 9139 H 892.495 2.38931 -2.22664 0
M  V30 9140 H 891.154 0.748519 -3.58877 0
M  V30 9141 H 890.802 3.20808 -3.87416 0
M  V30 9142 H 890.502 2.32942 -5.39455 0
M  V30 9143 H 892.026 3.23631 -5.1778 0
M  V30 9144 H 893.44 1.01298 -5.6428 0
M  V30 9145 H 891.837 0.303669 -5.99331 0
M  V30 9146 H 892.907 -0.490727 -4.8241 0
M  V30 9147 N 894.251 1.57596 -0.0117121 0
M  V30 9148 C 895.662 1.79033 0.529521 0
M  V30 9149 C 896.013 0.920299 1.73277 0
M  V30 9150 O 895.138 0.125934 2.16033 0
M  V30 9151 C 895.733 3.24695 0.967405 0
M  V30 9152 C 894.292 3.47188 1.45387 0
M  V30 9153 C 893.439 2.74245 0.410466 0
M  V30 9154 H 896.39 1.56908 -0.237836 0
M  V30 9155 H 896.411 3.33451 1.83278 0
M  V30 9156 H 895.923 3.87992 0.0914605 0
M  V30 9157 H 894.024 2.89121 2.35032 0
M  V30 9158 H 894.137 4.55886 1.47325 0
M  V30 9159 H 892.501 2.39209 0.874721 0
M  V30 9160 H 893.284 3.40248 -0.456713 0
M  V30 9161 N 895.729 -0.261212 1.5542 0
M  V30 9162 C 896.957 -1.00916 1.8062 0
M  V30 9163 C 897.372 -1.79494 0.585444 0
M  V30 9164 O 896.729 -1.76974 -0.445702 0
M  V30 9165 C 896.78 -1.95841 3.03856 0
M  V30 9166 O 896.501 -1.20445 4.21218 0
M  V30 9167 C 898.002 -2.82352 3.41749 0
M  V30 9168 H 895.222 -0.297596 0.601397 0
M  V30 9169 H 897.766 -0.288427 2.02456 0
M  V30 9170 H 895.921 -2.63361 2.84112 0
M  V30 9171 H 896.335 -1.84528 4.90968 0
M  V30 9172 H 897.809 -3.44733 4.31118 0
M  V30 9173 H 898.286 -3.5273 2.61683 0
M  V30 9174 H 898.892 -2.20306 3.63793 0
M  V30 9175 N 897.207 -1.48554 -0.526253 0
M  V30 9176 C 898.435 -1.60429 -1.30652 0
M  V30 9177 C 898.85 -0.265963 -1.86917 0
M  V30 9178 O 898.207 0.745262 -1.6659 0
M  V30 9179 C 898.258 -2.65377 -2.45473 0
M  V30 9180 O 897.979 -3.94017 -1.91527 0
M  V30 9181 C 899.48 -2.87726 -3.37237 0
M  V30 9182 H 896.7 -0.540817 -0.397187 0
M  V30 9183 H 899.244 -1.94409 -0.634461 0
M  V30 9184 H 897.399 -2.34246 -3.08557 0
M  V30 9185 H 897.813 -4.51623 -2.66715 0
M  V30 9186 H 899.287 -3.64951 -4.14144 0
M  V30 9187 H 899.764 -1.96688 -3.92696 0
M  V30 9188 H 900.37 -3.20176 -2.79942 0
M  V30 9189 N 898.685 0.775411 -1.37205 0
M  V30 9190 C 899.932 1.53384 -1.32211 0
M  V30 9191 C 900.26 1.9427 0.0944958 0
M  V30 9192 O 899.515 1.64059 1.06692 0
M  V30 9193 C 899.814 2.81377 -2.20367 0
M  V30 9194 C 899.48 2.59561 -3.68699 0
M  V30 9195 C 898.142 2.53319 -4.09124 0
M  V30 9196 C 900.494 2.39939 -4.62686 0
M  V30 9197 C 897.822 2.25442 -5.41658 0
M  V30 9198 C 900.174 2.13586 -5.95453 0
M  V30 9199 C 898.838 2.05786 -6.34987 0
M  V30 9200 H 898.108 0.561271 -0.483793 0
M  V30 9201 H 900.755 0.893466 -1.6938 0
M  V30 9202 H 899.06 3.49954 -1.76181 0
M  V30 9203 H 900.757 3.39238 -2.13819 0
M  V30 9204 H 897.347 2.6528 -3.36637 0
M  V30 9205 H 901.531 2.43753 -4.32317 0
M  V30 9206 H 896.787 2.17896 -5.71254 0
M  V30 9207 H 900.961 1.97401 -6.67837 0
M  V30 9208 H 898.588 1.83948 -7.37609 0
M  V30 9209 N 900.163 1.21714 1.00117 0
M  V30 9210 C 901.126 0.981338 2.07129 0
M  V30 9211 C 902.126 -0.0491116 1.60725 0
M  V30 9212 O 903.316 0.188555 1.73177 0
M  V30 9213 C 900.448 0.480608 3.37495 0
M  V30 9214 H 901.641 1.93075 2.29482 0
M  V30 9215 H 899.194 1.03467 1.17151 0
M  V30 9216 H 899.929 -0.473552 3.20824 0
M  V30 9217 H 899.714 1.22393 3.72508 0
M  V30 9218 H 901.204 0.33561 4.16249 0
M  V30 9219 N 901.641 -1.19671 1.02551 0
M  V30 9220 C 902.869 -1.93233 0.739513 0
M  V30 9221 C 903.284 -1.75298 -0.701158 0
M  V30 9222 O 902.641 -1.07269 -1.47647 0
M  V30 9223 C 902.692 -3.45085 1.07697 0
M  V30 9224 O 902.413 -3.62441 2.46106 0
M  V30 9225 C 903.914 -4.35776 0.813298 0
M  V30 9226 H 901.134 -0.613905 0.270853 0
M  V30 9227 H 903.678 -1.51909 1.36909 0
M  V30 9228 H 901.833 -3.84255 0.492635 0
M  V30 9229 H 902.247 -4.56337 2.58567 0
M  V30 9230 H 903.721 -5.40941 1.09941 0
M  V30 9231 H 904.198 -4.38474 -0.252359 0
M  V30 9232 H 904.804 -4.02282 1.38021 0
M  V30 9233 N 903.119 -0.802921 -1.35613 0
M  V30 9234 C 904.049 -0.225131 -2.32412 0
M  V30 9235 C 905.03 0.647383 -1.57299 0
M  V30 9236 O 906.215 0.578414 -1.85386 0
M  V30 9237 C 903.345 0.630085 -3.41537 0
M  V30 9238 C 902.299 -0.143635 -4.27759 0
M  V30 9239 C 901.625 0.833046 -5.28171 0
M  V30 9240 C 902.925 -1.34054 -5.04804 0
M  V30 9241 H 904.619 -1.03385 -2.80984 0
M  V30 9242 H 902.165 -0.498593 -1.35093 0
M  V30 9243 H 904.118 1.04433 -4.08254 0
M  V30 9244 H 902.842 1.47165 -2.91565 0
M  V30 9245 H 901.501 -0.539015 -3.62616 0
M  V30 9246 H 901.149 1.67001 -4.74468 0
M  V30 9247 H 900.849 0.319697 -5.8673 0
M  V30 9248 H 902.373 1.24558 -5.97761 0
M  V30 9249 H 903.787 -1.00136 -5.64487 0
M  V30 9250 H 902.184 -1.78812 -5.72841 0
M  V30 9251 H 903.254 -2.12906 -4.35659 0
M  V30 9252 N 904.597 1.47463 -0.556102 0
M  V30 9253 C 905.874 1.9557 0.0339892 0
M  V30 9254 C 906.254 1.49869 1.48669 0
M  V30 9255 O 905.602 0.737019 2.16288 0
M  V30 9256 C 905.812 3.48826 -0.110343 0
M  V30 9257 C 907.16 4.24585 0.0355716 0
M  V30 9258 O 908.184 3.5618 -0.0378356 0
M  V30 9259 O 907.043 5.46158 0.193299 0
M  V30 9260 H 904.137 0.824461 0.0647521 0
M  V30 9261 H 906.683 1.57868 -0.622547 0
M  V30 9262 H 905.455 3.74891 -1.12126 0
M  V30 9263 H 905.078 3.9329 0.583855 0
M  V30 9264 N 906.075 0.2925 1.54862 0
M  V30 9265 C 907.324 -0.319994 1.99146 0
M  V30 9266 C 907.637 -1.55658 1.18448 0
M  V30 9267 O 908.843 -2.24312 1.52959 0
M  V30 9268 C 907.299 -0.620665 3.54508 0
M  V30 9269 C 906.907 0.597098 4.44003 0
M  V30 9270 C 908.651 -1.19482 4.07338 0
M  V30 9271 C 906.558 0.270049 5.90783 0
M  V30 9272 H 905.488 -0.123342 0.743843 0
M  V30 9273 H 908.139 0.399876 1.7909 0
M  V30 9274 H 906.521 -1.3999 3.7043 0
M  V30 9275 H 907.695 1.37354 4.39853 0
M  V30 9276 H 906.01 1.0893 4.019 0
M  V30 9277 H 908.607 -1.45362 5.14562 0
M  V30 9278 H 908.95 -2.13435 3.57423 0
M  V30 9279 H 909.483 -0.477485 3.94924 0
M  V30 9280 H 906.222 1.17791 6.4483 0
M  V30 9281 H 905.742 -0.469292 5.97961 0
M  V30 9282 H 907.421 -0.131471 6.46866 0
M  V30 9283 N 907.553 -1.57587 0.0200696 0
M  V30 9284 C 908.83 -1.82696 -0.698677 0
M  V30 9285 C 909.21 -0.902082 -1.90855 0
M  V30 9286 O 908.558 0.0444834 -2.28457 0
M  V30 9287 C 908.768 -3.31691 -1.08546 0
M  V30 9288 C 910.116 -3.97938 -1.4809 0
M  V30 9289 O 911.14 -3.36133 -1.17869 0
M  V30 9290 O 909.999 -5.06851 -2.04364 0
M  V30 9291 H 907.093 -0.752997 -0.341942 0
M  V30 9292 H 909.639 -1.69635 0.04706 0
M  V30 9293 H 908.411 -3.90659 -0.223956 0
M  V30 9294 H 908.034 -3.49825 -1.88965 0
M  V30 9295 N 909.032 0.252966 -1.55557 0
M  V30 9296 C 910.28 0.979912 -1.76754 0
M  V30 9297 C 910.601 1.86083 -0.582944 0
M  V30 9298 O 909.871 1.91742 0.401497 0
M  V30 9299 H 908.451 0.364805 -0.651864 0
M  V30 9300 H 911.113 0.272372 -1.92987 0
M  V30 9301 H 910.209 1.60518 -2.67657 0
M  V30 9302 N 910.51 1.48831 0.518367 0
M  V30 9303 C 911.756 1.57672 1.27543 0
M  V30 9304 C 912.089 0.254915 1.9252 0
M  V30 9305 O 911.364 -0.740107 1.79868 0
M  V30 9306 C 911.647 2.72345 2.35585 0
M  V30 9307 C 911.5 4.14267 1.75224 0
M  V30 9308 C 912.819 2.82726 3.37274 0
M  V30 9309 H 909.938 0.573926 0.462361 0
M  V30 9310 H 912.58 1.8105 0.576267 0
M  V30 9311 H 910.73 2.52543 2.95219 0
M  V30 9312 H 912.402 4.45539 1.19551 0
M  V30 9313 H 910.645 4.20724 1.05706 0
M  V30 9314 H 911.316 4.90345 2.53507 0
M  V30 9315 H 913.792 3.00699 2.8761 0
M  V30 9316 H 912.668 3.6467 4.10252 0
M  V30 9317 H 912.929 1.9136 3.9854 0
M  V30 9318 N 911.988 -0.768124 1.37614 0
M  V30 9319 C 913.404 -1.06919 1.18493 0
M  V30 9320 C 913.604 -2.01486 0.0235753 0
M  V30 9321 O 912.66 -2.4438 -0.635209 0
M  V30 9322 C 913.973 -1.66321 2.50515 0
M  V30 9323 C 915.521 -1.78562 2.57069 0
M  V30 9324 C 915.996 -2.41377 3.89231 0
M  V30 9325 N 917.487 -2.48824 3.90693 0
M  V30 9326 C 918.222 -2.98288 4.89706 0
M  V30 9327 N 917.718 -3.47897 5.99115 0
M  V30 9328 N 919.511 -2.97196 4.77107 0
M  V30 9329 H 911.662 -0.140286 2.11936 0
M  V30 9330 H 913.925 -0.124863 0.939741 0
M  V30 9331 H 913.631 -1.04303 3.35878 0
M  V30 9332 H 913.505 -2.65571 2.67866 0
M  V30 9333 H 915.892 -2.39712 1.72111 0
M  V30 9334 H 915.973 -0.780574 2.43599 0
M  V30 9335 H 915.617 -1.80866 4.74605 0
M  V30 9336 H 915.547 -3.42495 4.00006 0
M  V30 9337 H 918.038 -2.1372 3.1166 0
M  V30 9338 H 918.351 -3.84053 6.70614 0
M  V30 9339 H 916.696 -3.45993 6.02755 0
M  V30 9340 H 919.887 -2.57741 3.90752 0
M  V30 9341 H 920.06 -3.35434 5.54426 0
M  V30 9342 N 913.466 -1.22244 -0.994698 0
M  V30 9343 C 914.413 -0.990906 -2.08446 0
M  V30 9344 C 915.383 0.086737 -1.65873 0
M  V30 9345 O 916.568 -0.0624882 -1.90698 0
M  V30 9346 C 913.708 -0.572813 -3.40313 0
M  V30 9347 C 912.821 -1.72103 -3.96238 0
M  V30 9348 C 911.956 -1.2511 -5.16257 0
M  V30 9349 C 910.995 -2.37098 -5.64315 0
M  V30 9350 N 910.132 -1.91164 -6.75574 0
M  V30 9351 H 914.972 -1.92377 -2.27585 0
M  V30 9352 H 912.509 -0.958576 -1.11578 0
M  V30 9353 H 914.467 -0.311594 -4.16035 0
M  V30 9354 H 913.097 0.323044 -3.21179 0
M  V30 9355 H 912.149 -2.09662 -3.17405 0
M  V30 9356 H 913.461 -2.56347 -4.27888 0
M  V30 9357 H 912.615 -0.947152 -5.99261 0
M  V30 9358 H 911.354 -0.378836 -4.86226 0
M  V30 9359 H 910.359 -2.68283 -4.799 0
M  V30 9360 H 911.584 -3.24837 -5.96371 0
M  V30 9361 H 909.53 -1.06298 -6.47331 0
M  V30 9362 H 909.447 -2.68975 -7.06533 0
M  V30 9363 H 910.715 -1.63833 -7.62088 0
M  V30 9364 N 914.944 1.19125 -1.03184 0
M  V30 9365 C 916.193 1.8821 -0.725264 0
M  V30 9366 C 916.506 1.80674 0.749411 0
M  V30 9367 O 917.712 2.45037 1.16915 0
M  V30 9368 C 916.168 3.37607 -1.24697 0
M  V30 9369 C 915.776 3.53693 -2.74964 0
M  V30 9370 C 917.52 4.12149 -1.01652 0
M  V30 9371 C 915.427 4.97001 -3.20538 0
M  V30 9372 H 914.357 0.704916 -0.267599 0
M  V30 9373 H 917.008 1.34663 -1.24652 0
M  V30 9374 H 915.39 3.90569 -0.653614 0
M  V30 9375 H 916.564 3.11046 -3.39981 0
M  V30 9376 H 914.879 2.92544 -2.96322 0
M  V30 9377 H 917.476 5.17837 -1.33226 0
M  V30 9378 H 917.819 4.16274 0.0465712 0
M  V30 9379 H 918.352 3.65334 -1.57403 0
M  V30 9380 H 915.091 4.9804 -4.26189 0
M  V30 9381 H 914.611 5.40398 -2.60251 0
M  V30 9382 H 916.29 5.65669 -3.14049 0
M  V30 9383 N 916.422 0.810101 1.35185 0
M  V30 9384 C 917.671 0.388589 1.97921 0
M  V30 9385 C 917.984 -1.05079 1.64978 0
M  V30 9386 O 919.19 -1.57559 2.21105 0
M  V30 9387 C 917.646 0.643864 3.54094 0
M  V30 9388 C 917.254 2.09602 3.95943 0
M  V30 9389 C 918.998 0.287883 4.23523 0
M  V30 9390 C 916.905 2.29686 5.44976 0
M  V30 9391 H 915.835 0.141562 0.740592 0
M  V30 9392 H 918.486 0.994653 1.54204 0
M  V30 9393 H 916.868 -0.0321978 3.95987 0
M  V30 9394 H 918.042 2.81018 3.65192 0
M  V30 9395 H 916.357 2.4122 3.39414 0
M  V30 9396 H 918.954 0.415946 5.3308 0
M  V30 9397 H 919.297 -0.766305 4.09186 0
M  V30 9398 H 919.83 0.918004 3.87063 0
M  V30 9399 H 916.569 3.33563 5.64284 0
M  V30 9400 H 916.089 1.62798 5.77284 0
M  V30 9401 H 917.768 2.11411 6.11485 0
M  V30 9402 N 917.9 -1.47166 0.563914 0
M  V30 9403 C 919.147 -2.02456 0.042371 0
M  V30 9404 C 919.475 -1.43753 -1.31016 0
M  V30 9405 O 918.73 -0.585287 -1.86743 0
M  V30 9406 C 919.029 -3.57279 -0.0931797 0
M  V30 9407 C 918.695 -4.34932 1.18933 0
M  V30 9408 C 917.357 -4.55867 1.54073 0
M  V30 9409 C 919.709 -4.79665 2.03889 0
M  V30 9410 C 917.037 -5.18785 2.74005 0
M  V30 9411 C 919.389 -5.43907 3.23029 0
M  V30 9412 C 918.053 -5.63074 3.58475 0
M  V30 9413 H 917.323 -0.740838 0.0155047 0
M  V30 9414 H 919.97 -1.76759 0.736776 0
M  V30 9415 H 918.275 -3.82005 -0.870596 0
M  V30 9416 H 919.972 -3.97716 -0.512176 0
M  V30 9417 H 916.562 -4.18921 0.905718 0
M  V30 9418 H 920.746 -4.63264 1.78046 0
M  V30 9419 H 916.002 -5.31818 3.01628 0
M  V30 9420 H 920.176 -5.77531 3.89141 0
M  V30 9421 H 917.803 -6.11598 4.515 0
M  V30 9422 N 919.378 -0.300708 -1.54705 0
M  V30 9423 C 920.341 0.562648 -2.22187 0
M  V30 9424 C 921.341 1.06152 -1.20782 0
M  V30 9425 O 922.531 0.957596 -1.45519 0
M  V30 9426 C 919.663 1.77899 -2.908 0
M  V30 9427 H 920.856 -0.0269361 -2.99888 0
M  V30 9428 H 918.409 -0.0515412 -1.56215 0
M  V30 9429 H 919.144 2.40841 -2.17177 0
M  V30 9430 H 918.929 1.42892 -3.65136 0
M  V30 9431 H 920.419 2.39236 -3.42281 0
M  V30 9432 N 920.856 1.57574 -0.0284266 0
M  V30 9433 C 921.786 2.1321 0.952039 0
M  V30 9434 C 922.767 1.04806 1.33977 0
M  V30 9435 O 923.952 1.32635 1.41851 0
M  V30 9436 C 921.082 2.65862 2.23461 0
M  V30 9437 C 920.036 3.79047 1.98765 0
M  V30 9438 C 919.362 4.18124 3.33281 0
M  V30 9439 C 920.662 5.05151 1.32739 0
M  V30 9440 H 922.356 2.95385 0.488705 0
M  V30 9441 H 919.902 1.42092 0.233628 0
M  V30 9442 H 921.855 3.03417 2.92431 0
M  V30 9443 H 920.579 1.80848 2.71959 0
M  V30 9444 H 919.238 3.41929 1.32213 0
M  V30 9445 H 918.886 3.30092 3.79537 0
M  V30 9446 H 918.586 4.94396 3.17563 0
M  V30 9447 H 920.11 4.58262 4.0352 0
M  V30 9448 H 921.524 5.40297 1.91708 0
M  V30 9449 H 919.921 5.86416 1.27421 0
M  V30 9450 H 920.991 4.83969 0.300261 0
M  V30 9451 N 922.334 -0.244713 1.55689 0
M  V30 9452 C 923.745 -0.813603 1.6804 0
M  V30 9453 C 924.096 -1.85936 0.626281 0
M  V30 9454 O 923.221 -2.15206 -0.227038 0
M  V30 9455 C 923.816 -1.48252 3.04642 0
M  V30 9456 C 922.375 -1.99908 3.18926 0
M  V30 9457 C 921.522 -0.850958 2.6392 0
M  V30 9458 H 924.473 -0.0204805 1.58687 0
M  V30 9459 H 924.494 -2.35062 2.99209 0
M  V30 9460 H 924.006 -0.721164 3.81341 0
M  V30 9461 H 922.107 -2.78918 2.47054 0
M  V30 9462 H 922.22 -2.19497 4.25862 0
M  V30 9463 H 920.584 -1.25206 2.21801 0
M  V30 9464 H 921.367 -0.10265 3.43146 0
M  V30 9465 N 923.813 -1.49104 -0.510467 0
M  V30 9466 C 925.061 -1.578 -1.26268 0
M  V30 9467 C 925.382 -0.262349 -1.93227 0
M  V30 9468 O 924.652 0.717624 -1.82283 0
M  V30 9469 H 923.232 -0.581387 -0.46904 0
M  V30 9470 H 925.894 -1.85678 -0.592423 0
M  V30 9471 H 924.99 -2.36919 -2.03165 0
M  V30 9472 N 925.291 0.760815 -1.38019 0
M  V30 9473 C 926.239 1.89578 -1.34771 0
M  V30 9474 C 927.233 1.67766 -0.234714 0
M  V30 9475 O 928.439 1.75423 -0.403352 0
M  V30 9476 H 924.814 0.623608 -0.420258 0
M  V30 9477 H 926.785 1.89434 -2.30558 0
M  V30 9478 C 925.534 3.26976 -1.18246 0
M  V30 9479 H 924.857 3.44342 -2.03147 0
M  V30 9480 H 926.297 4.06657 -1.20026 0
M  V30 9481 C 924.756 3.36717 0.111145 0
M  V30 9482 O 925.286 3.86607 1.09079 0
M  V30 9483 N 923.492 2.90128 0.165542 0
M  V30 9484 H 923.039 2.49719 -0.632328 0
M  V30 9485 H 922.997 2.97026 1.03067 0
M  V30 9486 N 926.769 1.22769 0.988202 0
M  V30 9487 C 928.18 1.0512 1.54294 0
M  V30 9488 C 928.531 -0.383904 1.92407 0
M  V30 9489 O 927.656 -1.26955 1.75246 0
M  V30 9490 C 928.251 1.90198 2.80375 0
M  V30 9491 C 926.81 1.76831 3.32276 0
M  V30 9492 C 925.957 1.86377 2.05326 0
M  V30 9493 H 928.908 1.36546 0.808758 0
M  V30 9494 H 928.929 1.42216 3.52923 0
M  V30 9495 H 928.441 2.9464 2.52605 0
M  V30 9496 H 926.542 0.751412 3.64945 0
M  V30 9497 H 926.655 2.59771 4.02562 0
M  V30 9498 H 925.019 1.2987 2.19103 0
M  V30 9499 H 925.802 2.9236 1.79946 0
M  V30 9500 N 928.247 -1.18576 1.03814 0
M  V30 9501 C 929.493 -1.88773 0.741132 0
M  V30 9502 C 929.826 -1.79993 -0.729127 0
M  V30 9503 O 929.101 -1.19851 -1.53186 0
M  V30 9504 C 929.384 -3.39352 1.20468 0
M  V30 9505 C 929.237 -3.56955 2.73684 0
M  V30 9506 C 930.556 -4.32901 0.792741 0
M  V30 9507 H 927.675 -0.685482 0.270708 0
M  V30 9508 H 930.317 -1.39523 1.2897 0
M  V30 9509 H 928.467 -3.81427 0.737974 0
M  V30 9510 H 930.139 -3.2399 3.28372 0
M  V30 9511 H 928.382 -2.99696 3.13632 0
M  V30 9512 H 929.053 -4.62598 3.01176 0
M  V30 9513 H 931.529 -3.98592 1.1943 0
M  V30 9514 H 930.405 -5.36828 1.14486 0
M  V30 9515 H 930.666 -4.41052 -0.304295 0
M  V30 9516 N 929.725 -0.817259 -1.34754 0
M  V30 9517 C 930.95 -0.414423 -2.03217 0
M  V30 9518 C 931.375 0.970037 -1.61158 0
M  V30 9519 O 930.733 1.63016 -0.793436 0
M  V30 9520 C 930.781 -0.518087 -3.56859 0
M  V30 9521 O 929.885 0.464314 -4.09778 0
M  V30 9522 H 929.226 -0.171454 -0.641482 0
M  V30 9523 H 931.756 -1.10611 -1.72123 0
M  V30 9524 H 931.766 -0.391779 -4.06115 0
M  V30 9525 H 930.441 -1.52786 -3.86819 0
M  V30 9526 H 929.018 0.297361 -3.71712 0
M  V30 9527 N 931.203 1.46865 -0.571711 0
M  V30 9528 C 932.166 2.28658 0.157499 0
M  V30 9529 C 933.166 1.37773 0.829172 0
M  V30 9530 O 934.356 1.6026 0.682811 0
M  V30 9531 C 931.488 3.17859 1.23202 0
M  V30 9532 H 932.681 2.94603 -0.561171 0
M  V30 9533 H 930.234 1.52793 -0.329229 0
M  V30 9534 H 930.969 2.56637 1.98262 0
M  V30 9535 H 930.754 3.84762 0.755031 0
M  V30 9536 H 932.244 3.7945 1.74378 0
M  V30 9537 N 932.681 0.308908 1.54543 0
M  V30 9538 C 933.927 -0.298478 2.00592 0
M  V30 9539 C 934.26 -1.52929 1.19692 0
M  V30 9540 O 933.535 -1.9254 0.27542 0
M  V30 9541 C 933.818 -0.647218 3.54236 0
M  V30 9542 C 933.671 0.593284 4.4587 0
M  V30 9543 C 934.99 -1.47064 4.14801 0
M  V30 9544 H 932.109 -0.107012 0.72919 0
M  V30 9545 H 934.751 0.422578 1.85241 0
M  V30 9546 H 932.901 -1.26153 3.67447 0
M  V30 9547 H 934.573 1.2317 4.44552 0
M  V30 9548 H 932.816 1.22501 4.16144 0
M  V30 9549 H 933.487 0.305018 5.51157 0
M  V30 9550 H 935.963 -0.951511 4.05075 0
M  V30 9551 H 934.839 -1.68343 5.22448 0
M  V30 9552 H 935.1 -2.4623 3.67183 0
M  V30 9553 N 934.159 -1.57557 0.0367827 0
M  V30 9554 C 935.405 -1.92399 -0.641133 0
M  V30 9555 C 935.738 -0.914191 -1.71336 0
M  V30 9556 O 935.013 0.0619616 -1.94401 0
M  V30 9557 C 935.296 -3.37689 -1.25052 0
M  V30 9558 C 935.149 -4.4941 -0.187326 0
M  V30 9559 C 936.468 -3.8309 -2.16634 0
M  V30 9560 H 933.587 -0.699666 -0.231597 0
M  V30 9561 H 936.229 -1.89759 0.0956083 0
M  V30 9562 H 934.379 -3.40069 -1.87843 0
M  V30 9563 H 936.051 -4.59161 0.443736 0
M  V30 9564 H 934.294 -4.31065 0.486313 0
M  V30 9565 H 934.965 -5.48119 -0.653459 0
M  V30 9566 H 937.441 -3.82494 -1.63821 0
M  V30 9567 H 936.317 -4.85429 -2.56222 0
M  V30 9568 H 936.578 -3.19028 -3.06062 0
M  V30 9569 N 935.637 0.236453 -1.55816 0
M  V30 9570 C 936.865 0.980295 -1.82203 0
M  V30 9571 C 937.28 1.7854 -0.613926 0
M  V30 9572 O 936.637 1.77661 0.417491 0
M  V30 9573 C 936.688 1.90982 -3.06933 0
M  V30 9574 O 936.409 1.13728 -4.23081 0
M  V30 9575 C 937.91 2.76879 -3.46198 0
M  V30 9576 H 935.13 0.28799 -0.606055 0
M  V30 9577 H 937.674 0.256182 -2.02889 0
M  V30 9578 H 935.829 2.58808 -2.88266 0
M  V30 9579 H 936.243 1.76694 -4.93842 0
M  V30 9580 H 937.717 3.37831 -4.36548 0
M  V30 9581 H 938.194 3.48522 -2.67262 0
M  V30 9582 H 938.8 2.1449 -3.67252 0
M  V30 9583 N 937.115 1.49373 0.502552 0
M  V30 9584 C 938.355 1.60398 1.26696 0
M  V30 9585 C 938.719 0.283599 1.89894 0
M  V30 9586 O 939.92 0.269022 2.6745 0
M  V30 9587 C 938.191 2.72998 2.30666 0
M  V30 9588 S 939.75 3.03964 3.16466 0
M  V30 9589 H 936.568 0.565781 0.430596 0
M  V30 9590 H 939.17 1.87024 0.569418 0
M  V30 9591 H 937.874 3.67458 1.82765 0
M  V30 9592 H 937.405 2.4836 3.05091 0
M  V30 9593 H 939.42 2.45367 4.31288 0
M  V30 9594 N 938.594 -0.753485 1.38421 0
M  V30 9595 C 939.542 -1.8886 1.35774 0
M  V30 9596 C 940.536 -1.67639 0.243608 0
M  V30 9597 O 941.742 -1.75206 0.412649 0
M  V30 9598 H 938.117 -0.62137 0.42356 0
M  V30 9599 H 940.088 -1.88209 2.3156 0
M  V30 9600 C 938.837 -3.26344 1.19979 0
M  V30 9601 H 938.16 -3.43259 2.04971 0
M  V30 9602 H 939.6 -4.06015 1.22181 0
M  V30 9603 C 938.059 -3.36771 -0.0932867 0
M  V30 9604 O 938.589 -3.8718 -1.07027 0
M  V30 9605 N 936.795 -2.90212 -0.150154 0
M  V30 9606 H 936.342 -2.4938 0.645562 0
M  V30 9607 H 936.3 -2.97569 -1.0149 0
M  V30 9608 N 940.072 -1.23292 -0.981677 0
M  V30 9609 C 941.002 -1.03738 -2.09191 0
M  V30 9610 C 941.983 0.0453041 -1.7004 0
M  V30 9611 O 943.168 -0.119092 -1.93834 0
M  V30 9612 C 940.298 -0.626426 -3.41604 0
M  V30 9613 C 939.252 -1.65631 -3.94652 0
M  V30 9614 C 938.578 -1.10084 -5.23245 0
M  V30 9615 C 939.878 -3.04903 -4.24066 0
M  V30 9616 H 941.572 -1.966 -2.25807 0
M  V30 9617 H 939.118 -0.946656 -1.0851 0
M  V30 9618 H 941.071 -0.476689 -4.18695 0
M  V30 9619 H 939.795 0.337873 -3.24848 0
M  V30 9620 H 938.454 -1.79402 -3.19704 0
M  V30 9621 H 938.102 -0.127562 -5.02838 0
M  V30 9622 H 937.802 -1.78896 -5.59705 0
M  V30 9623 H 939.326 -0.962928 -6.02959 0
M  V30 9624 H 940.74 -2.94441 -4.91912 0
M  V30 9625 H 939.137 -3.70941 -4.71724 0
M  V30 9626 H 940.207 -3.53991 -3.31389 0
M  V30 9627 N 941.55 1.18024 -1.04442 0
M  V30 9628 C 942.797 1.88098 -0.750022 0
M  V30 9629 C 943.125 1.80583 0.722489 0
M  V30 9630 O 942.38 1.20329 1.54335 0
M  V30 9631 C 942.679 3.37834 -1.16631 0
M  V30 9632 C 942.345 3.65553 -2.63974 0
M  V30 9633 C 941.007 3.72827 -3.04226 0
M  V30 9634 C 943.359 3.77634 -3.59224 0
M  V30 9635 C 940.687 3.89666 -4.38608 0
M  V30 9636 C 943.039 3.9599 -4.9333 0
M  V30 9637 C 941.703 4.01501 -5.33248 0
M  V30 9638 H 940.973 0.6883 -0.274452 0
M  V30 9639 H 943.62 1.39671 -1.31012 0
M  V30 9640 H 941.925 3.88266 -0.525071 0
M  V30 9641 H 943.622 3.90402 -0.915827 0
M  V30 9642 H 940.212 3.6051 -2.31798 0
M  V30 9643 H 944.396 3.71342 -3.2927 0
M  V30 9644 H 939.652 3.92178 -4.69048 0
M  V30 9645 H 943.826 4.0428 -5.67037 0
M  V30 9646 H 941.453 4.14301 -6.37384 0
M  V30 9647 N 943.028 0.824394 1.34319 0
M  V30 9648 C 944.274 0.413779 1.98534 0
M  V30 9649 C 944.607 -1.02089 1.65201 0
M  V30 9650 O 943.882 -1.71129 0.924402 0
M  V30 9651 C 944.165 0.61801 3.54757 0
M  V30 9652 C 944.018 2.0989 3.97827 0
M  V30 9653 C 945.337 0.0549041 4.40066 0
M  V30 9654 H 942.456 0.151815 0.721194 0
M  V30 9655 H 945.098 1.03723 1.5919 0
M  V30 9656 H 943.248 0.0873107 3.88402 0
M  V30 9657 H 944.92 2.69335 3.74508 0
M  V30 9658 H 943.163 2.58881 3.48085 0
M  V30 9659 H 943.834 2.1926 5.06586 0
M  V30 9660 H 946.31 0.508348 4.12983 0
M  V30 9661 H 945.186 0.227595 5.48428 0
M  V30 9662 H 945.447 -1.04025 4.29687 0
M  V30 9663 N 944.506 -1.46559 0.579492 0
M  V30 9664 C 945.752 -2.02699 0.0639363 0
M  V30 9665 C 946.085 -1.4504 -1.29139 0
M  V30 9666 O 945.36 -0.614284 -1.84545 0
M  V30 9667 C 945.643 -3.601 -0.00528618 0
M  V30 9668 C 945.496 -4.28149 1.37871 0
M  V30 9669 C 946.815 -4.34375 -0.707537 0
M  V30 9670 H 943.934 -0.736586 0.0247085 0
M  V30 9671 H 946.576 -1.74739 0.746071 0
M  V30 9672 H 944.726 -3.84052 -0.586206 0
M  V30 9673 H 946.398 -4.1547 2.00455 0
M  V30 9674 H 944.641 -3.87636 1.94732 0
M  V30 9675 H 945.312 -5.36888 1.28278 0
M  V30 9676 H 947.788 -4.15549 -0.214064 0
M  V30 9677 H 946.664 -5.44091 -0.724992 0
M  V30 9678 H 946.925 -4.052 -1.7682 0
M  V30 9679 N 945.984 -0.3171 -1.54377 0
M  V30 9680 C 947.395 0.172287 -1.85903 0
M  V30 9681 C 947.746 1.52141 -1.23885 0
M  V30 9682 O 946.871 2.0949 -0.542476 0
M  V30 9683 C 947.466 0.319392 -3.37291 0
M  V30 9684 C 946.025 0.752998 -3.68791 0
M  V30 9685 C 945.172 -0.129143 -2.76999 0
M  V30 9686 H 948.123 -0.537597 -1.49317 0
M  V30 9687 H 948.144 1.15137 -3.62662 0
M  V30 9688 H 947.656 -0.662671 -3.82401 0
M  V30 9689 H 945.757 1.74504 -3.2921 0
M  V30 9690 H 945.87 0.561228 -4.75801 0
M  V30 9691 H 944.234 0.394242 -2.5163 0
M  V30 9692 H 945.017 -1.10785 -3.24933 0
M  V30 9693 N 947.462 1.57535 -0.0451378 0
M  V30 9694 C 948.425 2.1008 0.916461 0
M  V30 9695 C 949.425 1.01913 1.2438 0
M  V30 9696 O 950.615 1.2801 1.18148 0
M  V30 9697 C 947.747 2.58001 2.22818 0
M  V30 9698 H 948.94 2.96334 0.461076 0
M  V30 9699 H 946.493 1.54974 0.203169 0
M  V30 9700 H 947.228 1.75123 2.72951 0
M  V30 9701 H 947.013 3.3704 2.00366 0
M  V30 9702 H 948.503 2.98822 2.9171 0
M  V30 9703 N 948.94 -0.228186 1.55939 0
M  V30 9704 C 949.87 -1.28607 1.94891 0
M  V30 9705 C 950.851 -1.49236 0.816245 0
M  V30 9706 O 952.036 -1.61531 1.07803 0
M  V30 9707 C 949.166 -2.63719 2.25986 0
M  V30 9708 C 948.12 -2.57757 3.4168 0
M  V30 9709 C 947.446 -3.96837 3.58364 0
M  V30 9710 C 948.746 -2.13116 4.76843 0
M  V30 9711 H 950.44 -0.962531 2.83506 0
M  V30 9712 H 947.986 -0.461577 1.36402 0
M  V30 9713 H 949.939 -3.37878 2.51826 0
M  V30 9714 H 948.663 -2.97747 1.34217 0
M  V30 9715 H 947.322 -1.86055 3.15878 0
M  V30 9716 H 946.97 -4.28162 2.63982 0
M  V30 9717 H 946.67 -3.93731 4.36176 0
M  V30 9718 H 948.194 -4.72668 3.86545 0
M  V30 9719 H 949.608 -2.77015 5.01932 0
M  V30 9720 H 948.005 -2.21083 5.57891 0
M  V30 9721 H 949.075 -1.08326 4.72645 0
M  V30 9722 N 950.418 -1.49637 -0.494624 0
M  V30 9723 C 951.834 -1.36541 -0.826361 0
M  V30 9724 C 952.034 -0.403386 -1.97421 0
M  V30 9725 O 951.09 0.162614 -2.51976 0
M  V30 9726 C 952.403 -2.77401 -1.16057 0
M  V30 9727 C 953.951 -2.86148 -1.26841 0
M  V30 9728 C 954.426 -4.27789 -1.63587 0
M  V30 9729 N 955.917 -4.3063 -1.70624 0
M  V30 9730 C 956.652 -5.37198 -2.00514 0
M  V30 9731 N 956.148 -6.54004 -2.28584 0
M  V30 9732 N 957.941 -5.2462 -2.01818 0
M  V30 9733 H 950.092 -2.10776 0.26219 0
M  V30 9734 H 952.355 -0.946419 0.0547235 0
M  V30 9735 H 952.061 -3.49526 -0.390434 0
M  V30 9736 H 951.935 -3.1317 -2.10249 0
M  V30 9737 H 954.322 -2.14256 -2.02925 0
M  V30 9738 H 954.403 -2.53953 -0.30684 0
M  V30 9739 H 954.047 -5.00209 -0.880507 0
M  V30 9740 H 953.977 -4.57453 -2.60854 0
M  V30 9741 H 956.468 -3.46393 -1.51065 0
M  V30 9742 H 956.781 -7.31041 -2.50598 0
M  V30 9743 H 955.126 -6.57219 -2.26027 0
M  V30 9744 H 958.317 -4.32371 -1.79369 0
M  V30 9745 H 958.49 -6.07765 -2.24778 0
M  V30 9746 N 951.896 0.746133 -1.38819 0
M  V30 9747 C 952.843 1.86001 -1.36647 0
M  V30 9748 C 953.813 1.6453 -0.227849 0
M  V30 9749 O 954.998 1.86092 -0.421241 0
M  V30 9750 C 952.138 3.23388 -1.20474 0
M  V30 9751 C 951.251 3.5664 -2.43786 0
M  V30 9752 C 950.386 4.8337 -2.20287 0
M  V30 9753 C 949.425 5.09431 -3.39332 0
M  V30 9754 N 948.562 6.2736 -3.1522 0
M  V30 9755 H 953.402 1.87192 -2.31869 0
M  V30 9756 H 950.939 0.914838 -1.15192 0
M  V30 9757 H 952.897 4.02679 -1.09112 0
M  V30 9758 H 951.527 3.21505 -0.288874 0
M  V30 9759 H 950.579 2.72135 -2.65794 0
M  V30 9760 H 951.891 3.71823 -3.3249 0
M  V30 9761 H 951.045 5.70619 -2.06103 0
M  V30 9762 H 949.784 4.70341 -1.28961 0
M  V30 9763 H 948.789 4.20648 -3.54027 0
M  V30 9764 H 950.014 5.24354 -4.31544 0
M  V30 9765 H 947.96 6.15639 -2.26549 0
M  V30 9766 H 947.877 6.43078 -3.97476 0
M  V30 9767 H 949.145 7.17477 -3.04707 0
M  V30 9768 N 953.375 1.23811 0.975125 0
M  V30 9769 C 954.308 0.967173 2.06691 0
M  V30 9770 C 955.286 -0.09642 1.62314 0
M  V30 9771 O 956.47 0.0389532 1.8846 0
M  V30 9772 C 953.597 0.458094 3.35588 0
M  V30 9773 C 952.643 1.5091 3.98909 0
M  V30 9774 S 953.476 3.08815 4.37485 0
M  V30 9775 C 954.632 2.59591 5.69529 0
M  V30 9776 H 954.865 1.89166 2.29355 0
M  V30 9777 H 952.398 1.07113 1.11203 0
M  V30 9778 H 954.356 0.170991 4.10144 0
M  V30 9779 H 953.017 -0.445562 3.10924 0
M  V30 9780 H 952.21 1.10315 4.91779 0
M  V30 9781 H 951.812 1.74582 3.30752 0
M  V30 9782 H 954.104 2.0194 6.46704 0
M  V30 9783 H 955.047 3.51021 6.14971 0
M  V30 9784 H 955.455 2.00267 5.27782 0
M  V30 9785 N 954.853 -1.17469 1.05066 0
M  V30 9786 C 955.785 -2.20974 0.608526 0
M  V30 9787 C 956.798 -1.59481 -0.327066 0
M  V30 9788 O 957.987 -1.78096 -0.12 0
M  V30 9789 C 955.087 -3.38652 -0.12969 0
M  V30 9790 C 954.26 -4.29716 0.816285 0
M  V30 9791 C 953.319 -5.26064 0.119556 0
M  V30 9792 O 952.345 -5.64194 0.753241 0
M  V30 9793 N 953.547 -5.69126 -1.14347 0
M  V30 9794 H 956.312 -2.59529 1.49882 0
M  V30 9795 H 953.873 -1.32355 0.932406 0
M  V30 9796 H 955.865 -4.00139 -0.605886 0
M  V30 9797 H 954.435 -2.98705 -0.921638 0
M  V30 9798 H 953.655 -3.6568 1.47213 0
M  V30 9799 H 954.943 -4.87449 1.45845 0
M  V30 9800 H 954.341 -5.4022 -1.67866 0
M  V30 9801 H 952.898 -6.32764 -1.56376 0
M  V30 9802 N 956.331 -0.831506 -1.3388 0
M  V30 9803 C 957.579 -0.422837 -1.97627 0
M  V30 9804 C 957.9 1.01961 -1.6622 0
M  V30 9805 O 957.17 1.70916 -0.957323 0
M  V30 9806 H 955.75 -0.153365 -0.731087 0
M  V30 9807 H 958.412 -1.06284 -1.6337 0
M  V30 9808 H 957.508 -0.548858 -3.07236 0
M  V30 9809 N 957.809 1.4625 -0.587256 0
M  V30 9810 C 959.058 2.01571 -0.0722643 0
M  V30 9811 C 959.371 1.46385 1.29733 0
M  V30 9812 O 960.577 1.93554 1.90392 0
M  V30 9813 C 959.033 3.59814 -0.078579 0
M  V30 9814 C 958.641 4.23996 -1.44678 0
M  V30 9815 C 960.385 4.22776 0.382231 0
M  V30 9816 C 958.292 5.74332 -1.41057 0
M  V30 9817 H 957.222 0.753642 -0.0232461 0
M  V30 9818 H 959.873 1.67936 -0.739577 0
M  V30 9819 H 958.255 3.90546 0.654988 0
M  V30 9820 H 959.429 4.04867 -2.20043 0
M  V30 9821 H 957.744 3.73147 -1.84799 0
M  V30 9822 H 960.341 5.32983 0.428182 0
M  V30 9823 H 960.684 3.92027 1.40072 0
M  V30 9824 H 961.217 3.96687 -0.297417 0
M  V30 9825 H 957.956 6.09747 -2.40601 0
M  V30 9826 H 957.476 5.95711 -0.699185 0
M  V30 9827 H 959.155 6.37137 -1.12543 0
M  V30 9828 N 959.287 0.325282 1.54207 0
M  V30 9829 C 960.217 -0.532574 2.27345 0
M  V30 9830 C 961.198 -1.11791 1.28206 0
M  V30 9831 O 962.383 -1.14272 1.57021 0
M  V30 9832 C 959.513 -1.69274 3.03255 0
M  V30 9833 C 958.467 -1.23662 4.09746 0
M  V30 9834 C 957.793 -2.48386 4.73506 0
M  V30 9835 C 959.093 -0.350244 5.21124 0
M  V30 9836 H 960.787 0.0775108 2.993 0
M  V30 9837 H 958.333 0.0387193 1.43948 0
M  V30 9838 H 960.286 -2.29917 3.53152 0
M  V30 9839 H 959.01 -2.32944 2.28921 0
M  V30 9840 H 957.669 -0.653106 3.60735 0
M  V30 9841 H 957.317 -3.10424 3.95786 0
M  V30 9842 H 957.017 -2.18558 5.45441 0
M  V30 9843 H 958.541 -3.09789 5.26178 0
M  V30 9844 H 959.955 -0.863011 5.66767 0
M  V30 9845 H 958.352 -0.14466 5.99926 0
M  V30 9846 H 959.422 0.618457 4.8094 0
M  V30 9847 N 960.765 -1.57509 0.0534917 0
M  V30 9848 C 962.042 -1.84137 -0.659767 0
M  V30 9849 C 962.422 -0.942362 -1.88899 0
M  V30 9850 O 961.77 -0.00398566 -2.285 0
M  V30 9851 C 961.98 -3.33919 -1.01486 0
M  V30 9852 C 963.328 -4.00989 -1.39616 0
M  V30 9853 O 964.352 -3.38557 -1.10713 0
M  V30 9854 O 963.211 -5.11071 -1.93567 0
M  V30 9855 H 960.305 -0.760081 -0.325893 0
M  V30 9856 H 962.851 -1.69497 0.0830315 0
M  V30 9857 H 961.623 -3.91046 -0.141041 0
M  V30 9858 H 961.246 -3.53755 -1.81503 0
M  V30 9859 N 962.243 0.219913 -1.56058 0
M  V30 9860 C 963.654 0.786766 -1.69313 0
M  V30 9861 C 964.005 1.84916 -0.655782 0
M  V30 9862 O 963.13 2.1554 0.192772 0
M  V30 9863 C 963.725 1.43387 -3.06962 0
M  V30 9864 C 962.284 1.94809 -3.22066 0
M  V30 9865 C 961.431 0.808863 -2.65241 0
M  V30 9866 H 964.382 -0.00476777 -1.58699 0
M  V30 9867 H 964.403 2.30272 -3.02911 0
M  V30 9868 H 963.915 0.660405 -3.8244 0
M  V30 9869 H 962.016 2.74952 -2.5146 0
M  V30 9870 H 962.129 2.12694 -4.293 0
M  V30 9871 H 960.493 1.21661 -2.23765 0
M  V30 9872 H 961.276 0.0480458 -3.43266 0
M  V30 9873 N 963.721 1.49897 0.486681 0
M  V30 9874 C 965.137 1.36977 0.819109 0
M  V30 9875 C 965.337 0.41385 1.97204 0
M  V30 9876 O 964.393 -0.149249 2.52059 0
M  V30 9877 C 965.706 2.78013 1.14584 0
M  V30 9878 C 967.254 2.86816 1.25321 0
M  V30 9879 C 967.729 4.28651 1.61316 0
M  V30 9880 N 969.22 4.31528 1.68337 0
M  V30 9881 C 969.955 5.38254 1.97662 0
M  V30 9882 N 969.451 6.55207 2.25113 0
M  V30 9883 N 971.244 5.25683 1.99033 0
M  V30 9884 H 963.395 2.10634 -0.273364 0
M  V30 9885 H 965.658 0.946116 -0.0597418 0
M  V30 9886 H 965.364 3.49728 0.371892 0
M  V30 9887 H 965.238 3.1428 2.08585 0
M  V30 9888 H 967.625 2.15329 2.01785 0
M  V30 9889 H 967.706 2.54112 0.293368 0
M  V30 9890 H 967.35 5.00669 0.853968 0
M  V30 9891 H 967.28 4.5883 2.58424 0
M  V30 9892 H 969.771 3.47189 1.49226 0
M  V30 9893 H 970.084 7.32359 2.46717 0
M  V30 9894 H 968.429 6.58408 2.22538 0
M  V30 9895 H 971.62 4.33316 1.77074 0
M  V30 9896 H 971.793 6.08949 2.21552 0
M  V30 9897 N 965.199 -0.738761 1.39212 0
M  V30 9898 C 966.61 -1.31684 1.32348 0
M  V30 9899 C 966.961 -1.96195 -0.0139041 0
M  V30 9900 O 966.086 -1.96056 -0.916025 0
M  V30 9901 C 966.681 -2.39444 2.39691 0
M  V30 9902 C 965.24 -2.92935 2.36359 0
M  V30 9903 C 964.387 -1.66465 2.21776 0
M  V30 9904 H 967.338 -0.536543 1.49355 0
M  V30 9905 H 967.359 -3.19744 2.06262 0
M  V30 9906 H 966.871 -1.92463 3.37016 0
M  V30 9907 H 964.972 -3.44207 1.42662 0
M  V30 9908 H 965.085 -3.46306 3.31073 0
M  V30 9909 H 963.449 -1.90657 1.68884 0
M  V30 9910 H 964.232 -1.21541 3.21065 0
M  V30 9911 N 966.677 -1.24326 -0.968545 0
M  V30 9912 C 967.905 -1.10947 -1.74638 0
M  V30 9913 C 968.32 0.338064 -1.85749 0
M  V30 9914 O 967.677 1.23331 -1.3452 0
M  V30 9915 C 967.728 -1.74254 -3.1673 0
M  V30 9916 O 967.449 -3.13347 -3.06178 0
M  V30 9917 C 968.95 -1.66473 -4.10855 0
M  V30 9918 H 966.17 -0.38767 -0.547679 0
M  V30 9919 H 968.714 -1.64415 -1.21605 0
M  V30 9920 H 966.869 -1.2479 -3.66751 0
M  V30 9921 H 967.283 -3.44255 -3.95713 0
M  V30 9922 H 968.757 -2.15452 -5.08217 0
M  V30 9923 H 969.234 -0.625785 -4.34719 0
M  V30 9924 H 969.84 -2.15359 -3.66743 0
M  V30 9925 N 968.156 1.1691 -1.05688 0
M  V30 9926 C 969.405 1.86629 -0.765022 0
M  V30 9927 C 969.718 1.82223 0.710918 0
M  V30 9928 O 970.924 2.47462 1.11691 0
M  V30 9929 C 969.38 3.34886 -1.3183 0
M  V30 9930 C 968.988 3.47781 -2.82404 0
M  V30 9931 C 970.732 4.099 -1.10372 0
M  V30 9932 C 968.639 4.9009 -3.31008 0
M  V30 9933 H 967.569 0.699082 -0.282491 0
M  V30 9934 H 970.22 1.31989 -1.27481 0
M  V30 9935 H 968.602 3.89094 -0.736312 0
M  V30 9936 H 969.776 3.03765 -3.46502 0
M  V30 9937 H 968.091 2.86193 -3.02461 0
M  V30 9938 H 970.688 5.14894 -1.4418 0
M  V30 9939 H 971.031 4.16279 -0.0417372 0
M  V30 9940 H 971.564 3.61913 -1.65117 0
M  V30 9941 H 968.303 4.88887 -4.36657 0
M  V30 9942 H 967.823 5.34756 -2.71655 0
M  V30 9943 H 969.502 5.58881 -3.25977 0
M  V30 9944 N 969.634 0.838594 1.33437 0
M  V30 9945 C 970.883 0.430484 1.97053 0
M  V30 9946 C 971.196 -1.01556 1.6717 0
M  V30 9947 O 972.402 -1.52834 2.24397 0
M  V30 9948 C 970.858 0.718828 3.52648 0
M  V30 9949 C 970.466 2.17953 3.91408 0
M  V30 9950 C 972.21 0.377654 4.22817 0
M  V30 9951 C 970.117 2.41194 5.39981 0
M  V30 9952 H 969.047 0.157239 0.737422 0
M  V30 9953 H 971.698 1.02714 1.5206 0
M  V30 9954 H 970.08 0.0518042 3.95966 0
M  V30 9955 H 971.254 2.88701 3.59149 0
M  V30 9956 H 969.569 2.48366 3.34221 0
M  V30 9957 H 972.166 0.528926 5.32077 0
M  V30 9958 H 972.509 -0.679338 4.1072 0
M  V30 9959 H 973.042 0.999899 3.85028 0
M  V30 9960 H 969.781 3.45457 5.57081 0
M  V30 9961 H 969.301 1.75007 5.73701 0
M  V30 9962 H 970.98 2.24334 6.06863 0
M  V30 9963 N 971.112 -1.45937 0.595003 0
M  V30 9964 C 972.059 -2.30427 -0.131165 0
M  V30 9965 C 973.029 -1.41355 -0.872232 0
M  V30 9966 O 974.214 -1.70296 -0.860467 0
M  V30 9967 C 971.354 -3.26045 -1.13087 0
M  V30 9968 C 970.467 -4.30218 -0.391982 0
M  V30 9969 C 969.602 -5.12953 -1.3803 0
M  V30 9970 C 968.641 -6.08865 -0.628505 0
M  V30 9971 N 967.778 -6.84425 -1.56548 0
M  V30 9972 H 972.618 -2.91992 0.595359 0
M  V30 9973 H 970.155 -1.43895 0.305405 0
M  V30 9974 H 972.113 -3.79937 -1.72348 0
M  V30 9975 H 970.743 -2.66261 -1.82496 0
M  V30 9976 H 969.795 -3.79086 0.315895 0
M  V30 9977 H 971.107 -4.98418 0.195173 0
M  V30 9978 H 970.261 -5.71184 -2.04534 0
M  V30 9979 H 969 -4.44743 -2.00138 0
M  V30 9980 H 968.005 -5.49777 0.0502431 0
M  V30 9981 H 969.23 -6.79099 -0.012641 0
M  V30 9982 H 967.176 -6.18913 -2.17444 0
M  V30 9983 H 967.093 -7.48931 -1.03145 0
M  V30 9984 H 968.361 -7.47204 -2.22049 0
M  V30 9985 N 972.59 -0.333456 -1.54032 0
M  V30 9986 C 973.553 0.515392 -2.2333 0
M  V30 9987 C 974.553 1.03566 -1.23007 0
M  V30 9988 O 975.743 0.926514 -1.47517 0
M  V30 9989 C 972.875 1.7169 -2.94508 0
M  V30 9990 H 974.068 -0.0905407 -2.99763 0
M  V30 9991 H 971.621 -0.0846651 -1.56071 0
M  V30 9992 H 972.356 2.3618 -2.22237 0
M  V30 9993 H 972.141 1.35115 -3.68085 0
M  V30 9994 H 973.631 2.31922 -3.47278 0
M  V30 9995 N 974.068 1.57479 -0.061844 0
M  V30 9996 C 975.484 1.56855 0.294753 0
M  V30 9997 C 975.684 1.07042 1.70717 0
M  V30 9998 O 974.74 0.731817 2.41662 0
M  V30 9999 C 976.053 3.00486 0.113484 0
M  V30 10000 C 977.601 3.1246 0.183778 0
M  V30 10001 C 978.076 4.5799 0.0309092 0
M  V30 10002 N 979.567 4.63119 0.0868393 0
M  V30 10003 C 980.302 5.734 -0.00717446 0
M  V30 10004 N 979.798 6.92628 -0.154144 0
M  V30 10005 N 981.591 5.62078 0.0491763 0
M  V30 10006 H 973.742 1.88176 -0.985058 0
M  V30 10007 H 976.005 0.867051 -0.383309 0
M  V30 10008 H 975.711 3.41004 -0.86075 0
M  V30 10009 H 975.585 3.67029 0.870023 0
M  V30 10010 H 977.972 2.71834 1.14849 0
M  V30 10011 H 978.053 2.48574 -0.603697 0
M  V30 10012 H 977.697 4.99303 -0.930526 0
M  V30 10013 H 977.627 5.19895 0.837664 0
M  V30 10014 H 980.118 3.77374 0.199245 0
M  V30 10015 H 980.431 7.72492 -0.218296 0
M  V30 10016 H 978.776 6.94742 -0.189372 0
M  V30 10017 H 981.967 4.67817 0.162626 0
M  V30 10018 H 982.14 6.47994 -0.0275478 0
M  V30 10019 N 975.546 -0.211634 1.56173 0
M  V30 10020 C 976.476 -1.26533 1.96244 0
M  V30 10021 C 977.457 -1.48362 0.832028 0
M  V30 10022 O 978.642 -1.60378 1.0951 0
M  V30 10023 C 975.772 -2.61307 2.2877 0
M  V30 10024 C 974.726 -2.54119 3.44395 0
M  V30 10025 C 974.052 -3.93014 3.62552 0
M  V30 10026 C 975.352 -2.08046 4.79076 0
M  V30 10027 H 977.046 -0.932407 2.84511 0
M  V30 10028 H 974.592 -0.447084 1.36884 0
M  V30 10029 H 976.545 -3.35188 2.55396 0
M  V30 10030 H 975.269 -2.96307 1.37367 0
M  V30 10031 H 973.928 -1.82694 3.17834 0
M  V30 10032 H 973.576 -4.25338 2.68508 0
M  V30 10033 H 973.276 -3.89083 4.40327 0
M  V30 10034 H 974.8 -4.68542 3.91537 0
M  V30 10035 H 976.214 -2.71676 5.04842 0
M  V30 10036 H 974.611 -2.15154 5.60204 0
M  V30 10037 H 975.681 -1.03306 4.73768 0
M  V30 10038 N 977.024 -1.50153 -0.478725 0
M  V30 10039 C 978.249 -1.64776 -1.2595 0
M  V30 10040 C 978.674 -0.327794 -1.85222 0
M  V30 10041 O 978.032 0.707418 -1.66929 0
M  V30 10042 C 978.08 -2.73551 -2.34952 0
M  V30 10043 O 977.184 -2.34273 -3.39397 0
M  V30 10044 H 976.525 -0.550769 -0.370877 0
M  V30 10045 H 979.055 -1.96482 -0.570605 0
M  V30 10046 H 979.065 -2.96397 -2.8038 0
M  V30 10047 H 977.74 -3.69354 -1.91181 0
M  V30 10048 H 976.317 -2.21844 -2.99733 0
M  V30 10049 N 978.502 0.731368 -1.39602 0
M  V30 10050 C 979.742 1.5036 -1.3846 0
M  V30 10051 C 980.106 1.91991 0.018784 0
M  V30 10052 O 981.307 2.68351 0.155236 0
M  V30 10053 C 979.578 2.70755 -2.33295 0
M  V30 10054 S 981.137 3.6036 -2.50372 0
M  V30 10055 H 977.955 0.514271 -0.490964 0
M  V30 10056 H 980.557 0.856654 -1.75732 0
M  V30 10057 H 979.261 2.38316 -3.34116 0
M  V30 10058 H 978.792 3.40376 -1.97251 0
M  V30 10059 H 980.807 4.64529 -1.74435 0
M  V30 10060 N 979.98 1.24838 0.961938 0
M  V30 10061 C 981.257 0.99939 1.68141 0
M  V30 10062 C 981.637 -0.476588 2.0565 0
M  V30 10063 O 980.985 -1.45224 1.76415 0
M  V30 10064 C 981.195 1.92797 2.90913 0
M  V30 10065 C 982.543 2.20219 3.63027 0
M  V30 10066 O 983.567 1.90496 3.00981 0
M  V30 10067 O 982.426 2.70725 4.74731 0
M  V30 10068 H 979.52 0.37842 0.735342 0
M  V30 10069 H 982.066 1.35961 1.01551 0
M  V30 10070 H 980.838 2.92492 2.59931 0
M  V30 10071 H 980.461 1.57127 3.65235 0
M  V30 10072 N 981.458 -1.16348 1.06306 0
M  V30 10073 C 982.704 -1.87158 0.781007 0
M  V30 10074 C 983.037 -1.81499 -0.690784 0
M  V30 10075 O 982.312 -1.23074 -1.50609 0
M  V30 10076 C 982.595 -3.3672 1.27639 0
M  V30 10077 C 982.448 -3.51069 2.81194 0
M  V30 10078 C 983.767 -4.31122 0.884388 0
M  V30 10079 H 980.886 -0.679586 0.285187 0
M  V30 10080 H 983.528 -1.36756 1.31901 0
M  V30 10081 H 981.678 -3.79775 0.818715 0
M  V30 10082 H 983.35 -3.16952 3.35171 0
M  V30 10083 H 981.593 -2.92976 3.19918 0
M  V30 10084 H 982.264 -4.56105 3.10921 0
M  V30 10085 H 984.74 -3.95969 1.27858 0
M  V30 10086 H 983.616 -5.34279 1.25847 0
M  V30 10087 H 983.877 -4.41598 -0.210673 0
M  V30 10088 N 982.937 -0.845659 -1.3299 0
M  V30 10089 C 983.884 -0.281761 -2.29074 0
M  V30 10090 C 984.854 0.606237 -1.54641 0
M  V30 10091 O 986.039 0.543063 -1.82908 0
M  V30 10092 C 983.179 0.531451 -3.40983 0
M  V30 10093 C 982.292 -0.381328 -4.30314 0
M  V30 10094 C 981.427 0.443643 -5.29344 0
M  V30 10095 C 980.466 -0.467101 -6.10315 0
M  V30 10096 N 979.603 0.320148 -7.0137 0
M  V30 10097 H 984.443 -1.10641 -2.76699 0
M  V30 10098 H 981.98 -0.55706 -1.36144 0
M  V30 10099 H 983.938 1.01848 -4.04577 0
M  V30 10100 H 982.568 1.32101 -2.94532 0
M  V30 10101 H 981.62 -0.986701 -3.6738 0
M  V30 10102 H 982.932 -1.08067 -4.86953 0
M  V30 10103 H 982.086 0.994212 -5.98498 0
M  V30 10104 H 980.825 1.17639 -4.73299 0
M  V30 10105 H 979.83 -1.02963 -5.40073 0
M  V30 10106 H 981.055 -1.19832 -6.68444 0
M  V30 10107 H 979.001 1.03615 -6.47765 0
M  V30 10108 H 978.918 -0.320338 -7.55321 0
M  V30 10109 H 980.186 0.852735 -7.74822 0
M  V30 10110 N 984.415 1.45619 -0.602734 0
M  V30 10111 C 985.345 2.33258 0.106342 0
M  V30 10112 C 986.326 1.46543 0.863664 0
M  V30 10113 O 987.511 1.75324 0.835175 0
M  V30 10114 C 984.641 3.29168 1.10751 0
M  V30 10115 C 983.595 4.25481 0.463717 0
M  V30 10116 C 982.921 5.11046 1.57278 0
M  V30 10117 C 984.221 5.18702 -0.61199 0
M  V30 10118 H 985.915 2.92795 -0.625423 0
M  V30 10119 H 983.461 1.40793 -0.302213 0
M  V30 10120 H 985.414 3.89346 1.61208 0
M  V30 10121 H 984.138 2.6778 1.8698 0
M  V30 10122 H 982.797 3.66595 -0.0199496 0
M  V30 10123 H 982.445 4.46029 2.32524 0
M  V30 10124 H 982.145 5.76286 1.14755 0
M  V30 10125 H 983.669 5.74091 2.07972 0
M  V30 10126 H 985.083 5.72979 -0.191686 0
M  V30 10127 H 983.48 5.92393 -0.958686 0
M  V30 10128 H 984.55 4.61424 -1.4905 0
M  V30 10129 N 985.893 0.34162 1.53853 0
M  V30 10130 C 987.17 -0.310664 1.93117 0
M  V30 10131 C 987.55 -1.68398 1.273 0
M  V30 10132 O 986.898 -2.24546 0.423225 0
M  V30 10133 C 987.108 -0.384867 3.46871 0
M  V30 10134 C 988.456 -0.636621 4.198 0
M  V30 10135 O 989.48 -0.467061 3.53125 0
M  V30 10136 O 988.339 -0.964962 5.37913 0
M  V30 10137 H 985.433 -0.180881 0.806977 0
M  V30 10138 H 987.979 0.392656 1.65095 0
M  V30 10139 H 986.751 0.57894 3.86994 0
M  V30 10140 H 986.374 -1.13505 3.81054 0
M  V30 10141 N 987.371 -1.57444 0.0701946 0
M  V30 10142 C 988.782 -1.80875 -0.462709 0
M  V30 10143 C 989.133 -0.983975 -1.69742 0
M  V30 10144 O 988.258 -0.206027 -2.15417 0
M  V30 10145 C 988.853 -3.28062 -0.84623 0
M  V30 10146 C 987.412 -3.52345 -1.32401 0
M  V30 10147 C 986.559 -2.7558 -0.308399 0
M  V30 10148 H 989.51 -1.55917 0.295907 0
M  V30 10149 H 989.531 -3.40023 -1.70776 0
M  V30 10150 H 989.043 -3.88064 0.0526033 0
M  V30 10151 H 987.144 -2.97645 -2.24139 0
M  V30 10152 H 987.257 -4.6104 -1.30304 0
M  V30 10153 H 985.621 -2.4229 -0.785337 0
M  V30 10154 H 986.404 -3.38319 0.582679 0
M  V30 10155 N 988.849 0.203349 -1.56283 0
M  V30 10156 C 990.265 0.55384 -1.49682 0
M  V30 10157 C 990.465 1.86261 -0.768701 0
M  V30 10158 O 989.521 2.50517 -0.315824 0
M  V30 10159 C 990.834 0.616216 -2.94318 0
M  V30 10160 C 992.382 0.705611 -3.04943 0
M  V30 10161 C 992.857 0.79917 -4.50974 0
M  V30 10162 N 994.348 0.862916 -4.55091 0
M  V30 10163 C 995.083 0.955334 -5.65386 0
M  V30 10164 N 994.579 1.01057 -6.8539 0
M  V30 10165 N 996.372 0.991884 -5.53279 0
M  V30 10166 H 988.523 -0.655244 -2.0204 0
M  V30 10167 H 990.786 -0.232344 -0.919087 0
M  V30 10168 H 990.492 -0.27619 -3.50614 0
M  V30 10169 H 990.366 1.47371 -3.4722 0
M  V30 10170 H 992.753 1.58845 -2.48701 0
M  V30 10171 H 992.834 -0.177921 -2.5518 0
M  V30 10172 H 992.478 -0.0792841 -5.07838 0
M  V30 10173 H 992.408 1.69838 -4.9846 0
M  V30 10174 H 994.899 0.829812 -3.68677 0
M  V30 10175 H 995.212 1.08137 -7.65197 0
M  V30 10176 H 993.557 0.979384 -6.88065 0
M  V30 10177 H 996.748 0.945514 -4.58451 0
M  V30 10178 H 996.921 1.06045 -6.39264 0
M  V30 10179 N 990.327 1.50405 0.470755 0
M  V30 10180 C 991.738 1.54266 1.05162 0
M  V30 10181 C 992.089 0.346359 1.93119 0
M  V30 10182 O 991.214 -0.540699 2.09536 0
M  V30 10183 C 991.809 2.7956 1.91394 0
M  V30 10184 C 990.368 2.86101 2.44588 0
M  V30 10185 C 989.515 2.48557 1.22941 0
M  V30 10186 H 992.466 1.56665 0.253359 0
M  V30 10187 H 992.487 2.61434 2.76464 0
M  V30 10188 H 991.999 3.66611 1.27351 0
M  V30 10189 H 990.1 2.03403 3.12183 0
M  V30 10190 H 990.213 3.88999 2.79672 0
M  V30 10191 H 988.577 2.01003 1.56429 0
M  V30 10192 H 989.36 3.37916 0.605598 0
M  V30 10193 N 991.805 -0.723954 1.39988 0
M  V30 10194 C 992.715 -1.86829 1.41887 0
M  V30 10195 C 993.731 -1.71173 0.312401 0
M  V30 10196 O 994.907 -1.93583 0.555651 0
M  V30 10197 C 991.972 -3.22541 1.27154 0
M  V30 10198 C 991.033 -3.50512 2.47871 0
M  V30 10199 C 990.266 -4.79749 2.33831 0
M  V30 10200 O 990.489 -5.54251 1.34765 0
M  V30 10201 O 989.423 -5.07868 3.23039 0
M  V30 10202 H 993.249 -1.88183 2.38371 0
M  V30 10203 H 990.834 -0.873259 1.21221 0
M  V30 10204 H 992.716 -4.0362 1.21114 0
M  V30 10205 H 991.391 -3.21933 0.337715 0
M  V30 10206 H 990.298 -2.69475 2.59488 0
M  V30 10207 H 991.631 -3.55909 3.39985 0
M  V30 10208 N 993.283 -1.25346 -0.955304 0
M  V30 10209 C 994.513 -1.12629 -1.732 0
M  V30 10210 C 994.921 0.322748 -1.86427 0
M  V30 10211 O 994.264 1.23381 -1.36099 0
M  V30 10212 C 994.326 -1.7064 -3.16421 0
M  V30 10213 C 993.99 -3.19632 -3.26626 0
M  V30 10214 C 994.987 -4.1663 -3.10991 0
M  V30 10215 C 992.672 -3.59829 -3.50468 0
M  V30 10216 C 994.666 -5.51806 -3.19043 0
M  V30 10217 C 992.353 -4.95143 -3.58157 0
M  V30 10218 C 993.351 -5.90941 -3.42459 0
M  V30 10219 O 993.039 -7.23792 -3.49828 0
M  V30 10220 H 992.771 -0.393646 -0.549562 0
M  V30 10221 H 995.325 -1.66184 -1.20715 0
M  V30 10222 H 993.555 -1.11532 -3.70267 0
M  V30 10223 H 995.244 -1.53032 -3.75947 0
M  V30 10224 H 996.01 -3.86915 -2.92441 0
M  V30 10225 H 991.889 -2.8576 -3.61749 0
M  V30 10226 H 995.433 -6.26559 -3.06707 0
M  V30 10227 H 991.33 -5.24525 -3.76224 0
M  V30 10228 H 992.098 -7.31879 -3.66463 0
M  V30 10229 N 994.761 1.15782 -1.06922 0
M  V30 10230 C 995.711 2.18373 -0.655537 0
M  V30 10231 C 996.695 1.57745 0.317084 0
M  V30 10232 O 997.887 1.76511 0.131509 0
M  V30 10233 C 995.016 3.43263 -0.0502314 0
M  V30 10234 C 994.102 4.10954 -1.04773 0
M  V30 10235 N 994.493 4.542 -2.22567 0
M  V30 10236 C 992.791 4.3723 -0.880087 0
M  V30 10237 C 993.492 5.06641 -2.85815 0
M  V30 10238 N 992.468 4.99917 -2.13505 0
M  V30 10239 H 996.27 2.49533 -1.55276 0
M  V30 10240 H 993.784 1.32303 -0.941793 0
M  V30 10241 H 995.781 4.16063 0.264003 0
M  V30 10242 H 994.441 3.13588 0.842167 0
M  V30 10243 H 995.452 4.47727 -2.60309 0
M  V30 10244 H 992.129 4.17481 -0.0402148 0
M  V30 10245 H 993.519 5.50092 -3.85808 0
M  V30 10246 N 996.239 0.8527 1.3254 0
M  V30 10247 C 997.655 0.542298 1.50104 0
M  V30 10248 C 997.855 -0.927465 1.78886 0
M  V30 10249 O 996.911 -1.7106 1.85728 0
M  V30 10250 C 998.224 1.4276 2.64651 0
M  V30 10251 C 999.772 1.42782 2.78536 0
M  V30 10252 C 1000.25 2.29828 3.9616 0
M  V30 10253 N 1001.74 2.27613 4.03418 0
M  V30 10254 C 1002.47 2.91696 4.93661 0
M  V30 10255 N 1001.97 3.64883 5.88925 0
M  V30 10256 N 1003.76 2.81094 4.86768 0
M  V30 10257 H 995.913 1.80395 1.12123 0
M  V30 10258 H 998.176 0.770394 0.552446 0
M  V30 10259 H 997.882 2.47266 2.50105 0
M  V30 10260 H 997.756 1.11358 3.60388 0
M  V30 10261 H 1000.14 0.390417 2.92506 0
M  V30 10262 H 1000.22 1.78198 1.83519 0
M  V30 10263 H 999.868 3.33635 3.82949 0
M  V30 10264 H 999.798 1.91746 4.9045 0
M  V30 10265 H 1002.29 1.74402 3.3525 0
M  V30 10266 H 1002.6 4.10952 6.54476 0
M  V30 10267 H 1000.95 3.68991 5.88957 0
M  V30 10268 H 1004.14 2.23469 4.11314 0
M  V30 10269 H 1004.31 3.31318 5.56895 0
M  V30 10270 N 997.718 -1.45297 0.610449 0
M  V30 10271 C 998.958 -2.04105 0.109802 0
M  V30 10272 C 999.322 -1.46818 -1.23727 0
M  V30 10273 O 1000.52 -1.96997 -1.82881 0
M  V30 10274 C 998.794 -3.57323 0.0741377 0
M  V30 10275 S 1000.35 -4.3728 -0.364901 0
M  V30 10276 H 997.171 -0.709171 0.050967 0
M  V30 10277 H 999.773 -1.77967 0.809194 0
M  V30 10278 H 998.477 -3.96528 1.05801 0
M  V30 10279 H 998.008 -3.8804 -0.647158 0
M  V30 10280 H 1000.02 -4.69224 -1.61379 0
M  V30 10281 N 999.196 -0.349774 -1.5367 0
M  V30 10282 C 1000.44 0.245862 -2.00196 0
M  V30 10283 C 1000.76 1.51154 -1.24144 0
M  V30 10284 O 1001.96 2.18481 -1.61178 0
M  V30 10285 C 1000.42 0.488665 -3.56567 0
M  V30 10286 C 1000.03 -0.761475 -4.41481 0
M  V30 10287 C 1001.77 1.04282 -4.11492 0
M  V30 10288 C 999.679 -0.489128 -5.89374 0
M  V30 10289 H 998.609 0.0956493 -0.747909 0
M  V30 10290 H 1001.26 -0.466068 -1.77483 0
M  V30 10291 H 999.642 1.26145 -3.75371 0
M  V30 10292 H 1000.82 -1.53585 -4.34452 0
M  V30 10293 H 999.131 -1.23771 -3.9758 0
M  V30 10294 H 1001.73 1.26164 -5.19603 0
M  V30 10295 H 1002.07 2.00023 -3.65098 0
M  V30 10296 H 1002.6 0.330582 -3.96424 0
M  V30 10297 H 999.343 -1.41643 -6.40014 0
M  V30 10298 H 998.863 0.247039 -5.99291 0
M  V30 10299 H 1000.54 -0.1087 -6.46909 0
M  V30 10300 N 1000.67 1.57404 -0.0785433 0
M  V30 10301 C 1001.6 2.16131 0.883726 0
M  V30 10302 C 1002.58 1.09015 1.30575 0
M  V30 10303 O 1003.77 1.3708 1.37559 0
M  V30 10304 C 1000.9 2.72836 2.1489 0
M  V30 10305 C 999.854 3.85178 1.86605 0
M  V30 10306 C 999.18 4.28516 3.1981 0
M  V30 10307 C 1000.48 5.09118 1.16601 0
M  V30 10308 H 1002.17 2.9679 0.394484 0
M  V30 10309 H 999.72 1.42763 0.188304 0
M  V30 10310 H 1001.67 3.12567 2.8263 0
M  V30 10311 H 1000.4 1.89408 2.66068 0
M  V30 10312 H 999.056 3.45962 1.21268 0
M  V30 10313 H 998.704 3.42 3.68843 0
M  V30 10314 H 998.404 5.04249 3.01674 0
M  V30 10315 H 999.928 4.70868 3.88737 0
M  V30 10316 H 1001.34 5.46123 1.74422 0
M  V30 10317 H 999.739 5.90173 1.087 0
M  V30 10318 H 1000.81 4.8468 0.146138 0
M  V30 10319 N 1002.15 -0.195058 1.56388 0
M  V30 10320 C 1003.38 -0.931642 1.84738 0
M  V30 10321 C 1003.79 -1.76849 0.661046 0
M  V30 10322 O 1003.15 -1.78705 -0.370241 0
M  V30 10323 C 1003.2 -1.82777 3.11889 0
M  V30 10324 O 1002.92 -1.02471 4.25948 0
M  V30 10325 C 1004.42 -2.67603 3.53417 0
M  V30 10326 H 1001.64 -0.271821 0.613477 0
M  V30 10327 H 1004.19 -0.202299 2.03497 0
M  V30 10328 H 1002.34 -2.51074 2.95027 0
M  V30 10329 H 1002.76 -1.63539 4.98353 0
M  V30 10330 H 1004.23 -3.26138 4.45352 0
M  V30 10331 H 1004.71 -3.41314 2.76408 0
M  V30 10332 H 1005.31 -2.04678 3.7281 0
M  V30 10333 N 1003.63 -1.50653 -0.462772 0
M  V30 10334 C 1004.88 -1.63264 -1.21311 0
M  V30 10335 C 1005.23 -0.332647 -1.89503 0
M  V30 10336 O 1004.52 0.669994 -1.79504 0
M  V30 10337 C 1004.72 -2.75637 -2.27507 0
M  V30 10338 C 1004.55 -4.16438 -1.69734 0
M  V30 10339 C 1003.32 -4.82727 -1.49341 0
M  V30 10340 C 1005.51 -5.00399 -1.18765 0
M  V30 10341 N 1003.5 -6.07718 -0.868991 0
M  V30 10342 C 1004.87 -6.16182 -0.68697 0
M  V30 10343 C 1006.92 -4.86112 -1.07699 0
M  V30 10344 C 1005.63 -7.19248 -0.0865268 0
M  V30 10345 C 1007.65 -5.89363 -0.490473 0
M  V30 10346 C 1007.01 -7.044 -0.000208479 0
M  V30 10347 H 1003.11 -0.651518 -0.432491 0
M  V30 10348 H 1005.7 -1.878 -0.51375 0
M  V30 10349 H 1003.87 -2.52809 -2.9486 0
M  V30 10350 H 1005.6 -2.77562 -2.94519 0
M  V30 10351 H 1002.35 -4.40161 -1.74801 0
M  V30 10352 H 1002.78 -6.74554 -0.574957 0
M  V30 10353 H 1007.42 -3.97452 -1.44194 0
M  V30 10354 H 1005.14 -8.07577 0.290614 0
M  V30 10355 H 1008.72 -5.80374 -0.407099 0
M  V30 10356 H 1007.6 -7.82928 0.44652 0
M  V30 10357 N 1005.11 0.71652 -1.4037 0
M  V30 10358 C 1006.06 1.82219 -1.37041 0
M  V30 10359 C 1007.04 1.58975 -0.248116 0
M  V30 10360 O 1008.23 1.70164 -0.487147 0
M  V30 10361 C 1005.36 3.20337 -1.23446 0
M  V30 10362 C 1004.45 3.49347 -2.40452 0
M  V30 10363 N 1004.84 3.49179 -3.65934 0
M  V30 10364 C 1003.14 3.798 -2.33811 0
M  V30 10365 C 1003.84 3.76506 -4.43416 0
M  V30 10366 N 1002.82 3.95209 -3.73244 0
M  V30 10367 H 1006.62 1.80421 -2.32003 0
M  V30 10368 H 1004.13 0.915603 -1.34129 0
M  V30 10369 H 1006.13 3.99513 -1.19143 0
M  V30 10370 H 1004.79 3.23362 -0.294497 0
M  V30 10371 H 1005.8 3.30051 -3.99107 0
M  V30 10372 H 1002.48 3.9032 -1.48177 0
M  V30 10373 H 1003.87 3.82689 -5.52267 0
M  V30 10374 N 1006.59 1.25851 0.948643 0
M  V30 10375 C 1007.54 1.03437 2.03187 0
M  V30 10376 C 1008.52 -0.0307632 1.60871 0
M  V30 10377 O 1009.71 0.185296 1.76027 0
M  V30 10378 C 1006.84 0.661426 3.36868 0
M  V30 10379 C 1005.93 1.76363 3.8569 0
M  V30 10380 N 1006.32 2.9998 4.07241 0
M  V30 10381 C 1004.62 1.64552 4.14534 0
M  V30 10382 C 1005.32 3.71564 4.47566 0
M  V30 10383 N 1004.29 2.99214 4.53841 0
M  V30 10384 H 1008.1 1.97277 2.17851 0
M  V30 10385 H 1005.61 1.16258 1.13392 0
M  V30 10386 H 1007.61 0.482021 4.14104 0
M  V30 10387 H 1006.27 -0.269582 3.23579 0
M  V30 10388 H 1007.28 3.35963 3.94143 0
M  V30 10389 H 1003.95 0.783891 4.10075 0
M  V30 10390 H 1005.34 4.77702 4.72494 0
M  V30 10391 N 1008.06 -1.15214 1.07534 0
M  V30 10392 C 1009 -2.19634 0.655261 0
M  V30 10393 C 1010.01 -1.60139 -0.293165 0
M  V30 10394 O 1011.2 -1.78311 -0.0821957 0
M  V30 10395 C 1008.3 -3.38851 -0.0578281 0
M  V30 10396 C 1007.47 -4.27888 0.90725 0
M  V30 10397 C 1006.53 -5.25692 0.231115 0
M  V30 10398 O 1005.56 -5.62469 0.872746 0
M  V30 10399 N 1006.76 -5.71424 -1.0225 0
M  V30 10400 H 1009.52 -2.56292 1.55353 0
M  V30 10401 H 1007.08 -1.30347 0.960271 0
M  V30 10402 H 1009.08 -4.01334 -0.520874 0
M  V30 10403 H 1007.65 -3.00593 -0.858071 0
M  V30 10404 H 1006.87 -3.62475 1.54937 0
M  V30 10405 H 1008.15 -4.84246 1.56151 0
M  V30 10406 H 1007.55 -5.43659 -1.56369 0
M  V30 10407 H 1006.11 -6.35938 -1.42919 0
M  V30 10408 N 1009.54 -0.859717 -1.32086 0
M  V30 10409 C 1010.45 -0.31108 -2.32528 0
M  V30 10410 C 1011.47 0.573714 -1.6427 0
M  V30 10411 O 1012.64 0.472878 -1.9577 0
M  V30 10412 C 1009.71 0.487256 -3.43259 0
M  V30 10413 C 1008.77 -0.424279 -4.27198 0
M  V30 10414 C 1008 0.336051 -5.32641 0
M  V30 10415 O 1008.23 1.56541 -5.48499 0
M  V30 10416 O 1007.16 -0.300777 -6.01148 0
M  V30 10417 H 1010.99 -1.14336 -2.81355 0
M  V30 10418 H 1008.57 -0.622794 -1.358 0
M  V30 10419 H 1010.45 0.940203 -4.10777 0
M  V30 10420 H 1009.13 1.29626 -2.96612 0
M  V30 10421 H 1008.04 -0.925509 -3.62471 0
M  V30 10422 H 1009.37 -1.1986 -4.77383 0
M  V30 10423 N 1011.02 1.44971 -0.618145 0
M  V30 10424 C 1012.43 1.85611 -0.201334 0
M  V30 10425 C 1012.78 1.51698 1.24427 0
M  V30 10426 O 1011.91 0.94875 1.94493 0
M  V30 10427 C 1012.5 3.36897 -0.358619 0
M  V30 10428 C 1011.06 3.764 0.00358196 0
M  V30 10429 C 1010.21 2.68881 -0.678118 0
M  V30 10430 H 1013.16 1.35622 -0.824152 0
M  V30 10431 H 1013.18 3.78326 0.406176 0
M  V30 10432 H 1012.69 3.61548 -1.41084 0
M  V30 10433 H 1010.79 3.57365 1.05457 0
M  V30 10434 H 1010.91 4.77449 -0.397427 0
M  V30 10435 H 1009.27 2.54442 -0.114699 0
M  V30 10436 H 1010.05 2.96367 -1.73268 0
M  V30 10437 N 1012.5 0.357919 1.53482 0
M  V30 10438 C 1013.43 -0.484231 2.28424 0
M  V30 10439 C 1014.41 -1.09046 1.30548 0
M  V30 10440 O 1015.59 -1.10916 1.59409 0
M  V30 10441 C 1012.72 -1.62803 3.06778 0
M  V30 10442 C 1011.68 -1.14943 4.12277 0
M  V30 10443 C 1011 -2.38287 4.78669 0
M  V30 10444 C 1012.3 -0.239627 5.2175 0
M  V30 10445 H 1014 0.140979 2.99068 0
M  V30 10446 H 1011.54 0.069244 1.43833 0
M  V30 10447 H 1013.5 -2.22374 3.57949 0
M  V30 10448 H 1012.22 -2.28036 2.3381 0
M  V30 10449 H 1010.88 -0.576442 3.6204 0
M  V30 10450 H 1010.53 -3.01959 4.02281 0
M  V30 10451 H 1010.23 -2.06939 5.49955 0
M  V30 10452 H 1011.75 -2.98558 5.32631 0
M  V30 10453 H 1013.17 -0.742597 5.6847 0
M  V30 10454 H 1011.56 -0.0173747 6.00097 0
M  V30 10455 H 1012.63 0.720333 4.7952 0
M  V30 10456 N 1013.98 -1.5736 0.0868897 0
M  V30 10457 C 1015.39 -1.81356 -0.443499 0
M  V30 10458 C 1015.74 -1.00192 -1.68689 0
M  V30 10459 O 1014.86 -0.228863 -2.15186 0
M  V30 10460 C 1015.46 -3.28941 -0.811387 0
M  V30 10461 C 1014.02 -3.53729 -1.28656 0
M  V30 10462 C 1013.16 -2.75891 -0.279153 0
M  V30 10463 H 1016.12 -1.55594 0.312427 0
M  V30 10464 H 1016.14 -3.41815 -1.6716 0
M  V30 10465 H 1015.65 -3.87987 0.0937598 0
M  V30 10466 H 1013.75 -3.00005 -2.2097 0
M  V30 10467 H 1013.86 -4.62396 -1.25406 0
M  V30 10468 H 1012.23 -2.4311 -0.759595 0
M  V30 10469 H 1013.01 -3.37682 0.618529 0
M  V30 10470 N 1015.45 0.186762 -1.56489 0
M  V30 10471 C 1016.7 0.902594 -1.82277 0
M  V30 10472 C 1017.06 1.80536 -0.665179 0
M  V30 10473 O 1016.35 1.88573 0.339224 0
M  V30 10474 C 1016.54 1.74719 -3.11782 0
M  V30 10475 C 1016.37 0.92769 -4.40027 0
M  V30 10476 C 1015.14 0.608832 -5.01619 0
M  V30 10477 C 1017.34 0.276471 -5.13556 0
M  V30 10478 N 1015.32 -0.228425 -6.13475 0
M  V30 10479 C 1016.69 -0.42262 -6.18558 0
M  V30 10480 C 1018.75 0.19305 -4.97526 0
M  V30 10481 C 1017.45 -1.1972 -7.09267 0
M  V30 10482 C 1019.48 -0.568152 -5.88665 0
M  V30 10483 C 1018.84 -1.25566 -6.93118 0
M  V30 10484 H 1014.94 0.309403 -0.718188 0
M  V30 10485 H 1017.52 0.170693 -1.9395 0
M  V30 10486 H 1015.69 2.45063 -3.01328 0
M  V30 10487 H 1017.42 2.40314 -3.25625 0
M  V30 10488 H 1014.18 0.935247 -4.64274 0
M  V30 10489 H 1014.6 -0.636908 -6.73997 0
M  V30 10490 H 1019.25 0.71023 -4.16792 0
M  V30 10491 H 1016.96 -1.72578 -7.89457 0
M  V30 10492 H 1020.55 -0.634164 -5.78333 0
M  V30 10493 H 1019.43 -1.83524 -7.62423 0
M  V30 10494 N 1016.93 1.50896 0.454776 0
M  V30 10495 C 1017.9 1.70377 1.53312 0
M  V30 10496 C 1018.9 0.57408 1.50203 0
M  V30 10497 O 1020.09 0.841374 1.52534 0
M  V30 10498 C 1017.22 1.74411 2.92905 0
M  V30 10499 H 1018.41 2.66599 1.37349 0
M  V30 10500 H 1015.96 1.40622 0.68228 0
M  V30 10501 H 1016.7 0.799408 3.14293 0
M  V30 10502 H 1016.48 2.56496 2.96568 0
M  V30 10503 H 1017.97 1.91382 3.71164 0
M  V30 10504 N 1018.41 -0.709066 1.40748 0
M  V30 10505 C 1019.34 -1.83412 1.37451 0
M  V30 10506 C 1020.36 -1.60394 0.27884 0
M  V30 10507 O 1021.54 -1.70147 0.539642 0
M  V30 10508 C 1018.64 -3.19935 1.1178 0
M  V30 10509 C 1017.82 -3.70095 2.33128 0
M  V30 10510 C 1016.88 -4.85249 2.03518 0
M  V30 10511 O 1015.9 -4.97563 2.76442 0
M  V30 10512 N 1017.1 -5.7152 1.01714 0
M  V30 10513 H 1019.87 -1.86736 2.34414 0
M  V30 10514 H 1017.43 -0.890863 1.35186 0
M  V30 10515 H 1019.42 -3.94578 0.899464 0
M  V30 10516 H 1017.99 -3.11718 0.234624 0
M  V30 10517 H 1017.21 -2.8651 2.70751 0
M  V30 10518 H 1018.5 -4.00344 3.1401 0
M  V30 10519 H 1017.9 -5.64188 0.413307 0
M  V30 10520 H 1016.46 -6.46119 0.858696 0
M  V30 10521 N 1019.89 -1.26353 -0.941956 0
M  V30 10522 C 1021.11 -1.14731 -1.72776 0
M  V30 10523 C 1021.54 0.293766 -1.85792 0
M  V30 10524 O 1020.9 1.21284 -1.34759 0
M  V30 10525 C 1020.95 -1.82041 -3.11277 0
M  V30 10526 O 1020.05 -1.10867 -3.97218 0
M  V30 10527 H 1019.39 -0.399823 -0.53013 0
M  V30 10528 H 1021.92 -1.67157 -1.17981 0
M  V30 10529 H 1021.93 -1.88834 -3.61671 0
M  V30 10530 H 1020.61 -2.86879 -3.0112 0
M  V30 10531 H 1019.18 -1.12044 -3.55669 0
M  V30 10532 N 1021.37 1.14642 -1.08144 0
M  V30 10533 C 1022.6 1.89484 -0.830864 0
M  V30 10534 C 1023.01 1.78443 0.616722 0
M  V30 10535 O 1022.37 1.14191 1.42361 0
M  V30 10536 C 1022.42 3.39554 -1.24039 0
M  V30 10537 O 1022.14 3.50286 -2.63119 0
M  V30 10538 C 1023.64 4.31399 -1.02029 0
M  V30 10539 H 1020.86 0.600283 -0.299835 0
M  V30 10540 H 1023.4 1.45204 -1.44001 0
M  V30 10541 H 1021.56 3.81467 -0.675407 0
M  V30 10542 H 1021.97 4.43481 -2.80045 0
M  V30 10543 H 1023.45 5.35079 -1.35625 0
M  V30 10544 H 1023.92 4.39179 0.0428697 0
M  V30 10545 H 1024.53 3.95238 -1.57057 0
M  V30 10546 N 1022.85 0.866709 1.31628 0
M  V30 10547 C 1024.09 0.475086 1.96437 0
M  V30 10548 C 1024.41 -0.975179 1.68865 0
M  V30 10549 O 1023.68 -1.68317 1.0023 0
M  V30 10550 H 1022.26 0.172695 0.726764 0
M  V30 10551 H 1024.93 1.10578 1.60494 0
M  V30 10552 H 1024.02 0.630123 3.05673 0
M  V30 10553 N 1024.32 -1.44642 0.625825 0
M  V30 10554 C 1025.27 -2.32408 -0.0945221 0
M  V30 10555 C 1026.27 -1.47038 -0.841198 0
M  V30 10556 O 1027.47 -1.63415 -0.754698 0
M  V30 10557 H 1023.85 -0.75038 -0.0493321 0
M  V30 10558 H 1025.82 -2.90922 0.663863 0
M  V30 10559 C 1024.57 -3.30951 -1.06615 0
M  V30 10560 H 1023.89 -3.96648 -0.501021 0
M  V30 10561 H 1025.33 -3.95054 -1.53976 0
M  V30 10562 C 1023.79 -2.59479 -2.14877 0
M  V30 10563 O 1024.32 -2.38974 -3.22885 0
M  V30 10564 N 1022.52 -2.19307 -1.90665 0
M  V30 10565 H 1022.07 -2.36184 -1.02835 0
M  V30 10566 H 1022.03 -1.71811 -2.63303 0
M  V30 10567 N 1025.8 -0.366053 -1.5329 0
M  V30 10568 C 1026.73 0.514916 -2.23341 0
M  V30 10569 C 1027.75 1.04579 -1.24768 0
M  V30 10570 O 1028.94 0.952084 -1.50989 0
M  V30 10571 C 1026.04 1.72374 -2.91788 0
M  V30 10572 C 1025.21 1.32429 -4.16871 0
M  V30 10573 C 1024.27 2.39524 -4.68524 0
M  V30 10574 O 1023.29 2.01895 -5.32191 0
M  V30 10575 N 1024.5 3.71116 -4.46378 0
M  V30 10576 H 1027.26 -0.0851272 -2.99579 0
M  V30 10577 H 1024.82 -0.191255 -1.60766 0
M  V30 10578 H 1026.81 2.43496 -3.23252 0
M  V30 10579 H 1025.38 2.23064 -2.19 0
M  V30 10580 H 1024.6 0.442901 -3.91704 0
M  V30 10581 H 1025.89 1.03372 -4.98188 0
M  V30 10582 H 1025.29 4.04463 -3.95508 0
M  V30 10583 H 1023.85 4.38341 -4.82391 0
M  V30 10584 N 1027.28 1.57312 -0.0952337 0
M  V30 10585 C 1028.21 2.09691 0.900274 0
M  V30 10586 C 1029.19 1.0075 1.27625 0
M  V30 10587 O 1030.37 1.28249 1.38147 0
M  V30 10588 C 1027.5 2.574 2.20142 0
M  V30 10589 C 1026.55 3.78 1.9753 0
M  V30 10590 S 1027.38 5.21577 1.21318 0
M  V30 10591 C 1028.54 5.72636 2.52663 0
M  V30 10592 H 1028.77 2.93803 0.45467 0
M  V30 10593 H 1026.3 1.53948 0.118056 0
M  V30 10594 H 1028.26 2.85546 2.94914 0
M  V30 10595 H 1026.92 1.73514 2.61824 0
M  V30 10596 H 1026.11 4.09451 2.93881 0
M  V30 10597 H 1025.72 3.50349 1.30888 0
M  V30 10598 H 1028.01 5.80911 3.48638 0
M  V30 10599 H 1028.95 6.71136 2.25791 0
M  V30 10600 H 1029.36 5.00569 2.60943 0
M  V30 10601 N 1028.76 -0.17846 1.56586 0
M  V30 10602 C 1029.98 -0.916061 1.86073 0
M  V30 10603 C 1030.41 -1.75349 0.680754 0
M  V30 10604 O 1029.77 -1.77479 -0.37028 0
M  V30 10605 C 1029.81 -1.77445 3.1392 0
M  V30 10606 O 1028.92 -2.87524 2.95641 0
M  V30 10607 H 1028.26 -0.257031 0.612234 0
M  V30 10608 H 1030.79 -0.178755 2.03818 0
M  V30 10609 H 1030.8 -2.1758 3.45142 0
M  V30 10610 H 1029.47 -1.15927 3.99417 0
M  V30 10611 H 1028.05 -2.51023 2.75757 0
M  V30 10612 N 1030.24 -1.51135 -0.446768 0
M  V30 10613 C 1031.46 -1.67411 -1.22427 0
M  V30 10614 C 1031.89 -0.367009 -1.84485 0
M  V30 10615 O 1031.24 0.67185 -1.68392 0
M  V30 10616 C 1031.29 -2.78473 -2.29096 0
M  V30 10617 O 1030.4 -2.41419 -3.34351 0
M  V30 10618 H 1029.74 -0.558512 -0.359111 0
M  V30 10619 H 1032.27 -1.97648 -0.5288 0
M  V30 10620 H 1032.28 -3.02277 -2.7403 0
M  V30 10621 H 1030.95 -3.73326 -1.83304 0
M  V30 10622 H 1029.53 -2.28152 -2.9496 0
M  V30 10623 N 1031.71 0.701592 -1.41122 0
M  V30 10624 C 1033.13 1.01143 -1.23459 0
M  V30 10625 C 1033.33 2.01144 -0.11968 0
M  V30 10626 O 1032.39 2.47132 0.517889 0
M  V30 10627 C 1033.7 1.54179 -2.58165 0
M  V30 10628 C 1035.25 1.66093 -2.65296 0
M  V30 10629 C 1035.72 2.22532 -4.00304 0
M  V30 10630 N 1037.21 2.299 -4.0212 0
M  V30 10631 C 1037.95 2.74584 -5.0338 0
M  V30 10632 N 1037.44 3.18917 -6.15032 0
M  V30 10633 N 1039.24 2.74094 -4.90743 0
M  V30 10634 H 1031.39 0.0390087 -2.12364 0
M  V30 10635 H 1033.65 0.0798848 -0.944628 0
M  V30 10636 H 1033.36 0.881587 -3.40472 0
M  V30 10637 H 1033.23 2.52488 -2.80231 0
M  V30 10638 H 1035.62 2.31227 -1.83352 0
M  V30 10639 H 1035.7 0.663461 -2.47046 0
M  V30 10640 H 1035.34 1.58016 -4.82694 0
M  V30 10641 H 1035.27 3.2302 -4.15891 0
M  V30 10642 H 1037.76 1.98607 -3.21502 0
M  V30 10643 H 1038.08 3.5162 -6.88174 0
M  V30 10644 H 1036.42 3.1684 -6.18577 0
M  V30 10645 H 1039.61 2.38804 -4.02604 0
M  V30 10646 H 1039.79 3.086 -5.69798 0
M  V30 10647 N 1033.19 1.2685 0.935242 0
M  V30 10648 C 1034.12 1.1143 2.05196 0
M  V30 10649 C 1035.1 0.0178362 1.70091 0
M  V30 10650 O 1036.29 0.190951 1.93259 0
M  V30 10651 C 1033.42 0.752779 3.39044 0
M  V30 10652 C 1032.37 1.80164 3.88233 0
M  V30 10653 C 1031.7 1.29428 5.18799 0
M  V30 10654 C 1033 3.20431 4.12457 0
M  V30 10655 H 1034.69 2.04845 2.18355 0
M  V30 10656 H 1032.24 0.986276 1.04922 0
M  V30 10657 H 1034.19 0.631757 4.16637 0
M  V30 10658 H 1032.91 -0.217075 3.25878 0
M  V30 10659 H 1031.57 1.91144 3.12825 0
M  V30 10660 H 1031.22 0.3141 5.02018 0
M  V30 10661 H 1030.92 1.99546 5.5268 0
M  V30 10662 H 1032.45 1.18605 5.9897 0
M  V30 10663 H 1033.86 3.12495 4.80645 0
M  V30 10664 H 1032.26 3.88193 4.57631 0
M  V30 10665 H 1033.33 3.66046 3.18023 0
M  V30 10666 N 1034.67 -1.14067 1.0875 0
M  V30 10667 C 1035.6 -2.18306 0.664652 0
M  V30 10668 C 1036.58 -1.59312 -0.325359 0
M  V30 10669 O 1037.77 -1.87111 -0.228385 0
M  V30 10670 C 1034.89 -3.38693 -0.0218723 0
M  V30 10671 C 1033.94 -4.16263 0.928844 0
M  V30 10672 S 1034.77 -4.76817 2.43734 0
M  V30 10673 C 1035.93 -6.00557 1.76302 0
M  V30 10674 H 1036.16 -2.53837 1.54772 0
M  V30 10675 H 1033.69 -1.25254 0.902817 0
M  V30 10676 H 1035.65 -4.0843 -0.411686 0
M  V30 10677 H 1034.31 -3.01478 -0.881481 0
M  V30 10678 H 1033.51 -5.02446 0.395446 0
M  V30 10679 H 1033.11 -3.52146 1.25972 0
M  V30 10680 H 1035.4 -6.68788 1.08301 0
M  V30 10681 H 1036.34 -6.58492 2.60373 0
M  V30 10682 H 1036.75 -5.50827 1.23489 0
M  V30 10683 N 1036.15 -0.873678 -1.31166 0
M  V30 10684 C 1037.37 -0.500242 -2.01277 0
M  V30 10685 C 1037.8 0.900811 -1.65127 0
M  V30 10686 O 1037.16 1.59504 -0.861862 0
M  V30 10687 C 1037.2 -0.668976 -3.5434 0
M  V30 10688 O 1036.31 0.290096 -4.11378 0
M  V30 10689 H 1035.65 -0.198507 -0.633633 0
M  V30 10690 H 1038.18 -1.17811 -1.67277 0
M  V30 10691 H 1038.19 -0.563673 -4.04088 0
M  V30 10692 H 1036.86 -1.69055 -3.79991 0
M  V30 10693 H 1035.44 0.139437 -3.72639 0
M  V30 10694 N 1037.63 1.44308 -0.633487 0
M  V30 10695 C 1038.56 2.27887 0.119397 0
M  V30 10696 C 1039.54 1.38676 0.848981 0
M  V30 10697 O 1040.72 1.68116 0.85259 0
M  V30 10698 C 1037.85 3.17658 1.17521 0
M  V30 10699 C 1036.89 4.22992 0.54589 0
M  V30 10700 S 1037.73 5.31345 -0.6658 0
M  V30 10701 C 1038.88 6.24684 0.389965 0
M  V30 10702 H 1039.12 2.91394 -0.589638 0
M  V30 10703 H 1036.65 1.48529 -0.421727 0
M  V30 10704 H 1038.61 3.69929 1.77941 0
M  V30 10705 H 1037.27 2.53367 1.85645 0
M  V30 10706 H 1036.46 4.85828 1.34115 0
M  V30 10707 H 1036.06 3.73996 0.0162506 0
M  V30 10708 H 1038.36 6.65645 1.26185 0
M  V30 10709 H 1039.3 7.07809 -0.202878 0
M  V30 10710 H 1039.71 5.59929 0.716922 0
M  V30 10711 N 1039.1 0.374177 1.53094 0
M  V30 10712 C 1040.52 0.0234783 1.59583 0
M  V30 10713 C 1040.72 -1.45984 1.38892 0
M  V30 10714 O 1039.78 -2.22251 1.19836 0
M  V30 10715 C 1041.09 0.487117 2.96728 0
M  V30 10716 C 1042.64 0.442073 3.09862 0
M  V30 10717 C 1043.11 0.881659 4.49434 0
M  V30 10718 N 1044.6 0.837062 4.55574 0
M  V30 10719 C 1045.34 1.14878 5.61774 0
M  V30 10720 N 1044.83 1.53022 6.75689 0
M  V30 10721 N 1046.63 1.07102 5.51802 0
M  V30 10722 H 1038.78 1.34003 1.64794 0
M  V30 10723 H 1041.04 0.548281 0.773364 0
M  V30 10724 H 1040.75 1.52252 3.17037 0
M  V30 10725 H 1040.62 -0.121772 3.77003 0
M  V30 10726 H 1043.01 -0.584216 2.89259 0
M  V30 10727 H 1043.09 1.08657 2.31576 0
M  V30 10728 H 1042.73 1.90611 4.70776 0
M  V30 10729 H 1042.66 0.214326 5.26164 0
M  V30 10730 H 1045.15 0.556173 3.73785 0
M  V30 10731 H 1045.47 1.75211 7.52676 0
M  V30 10732 H 1043.81 1.56895 6.77059 0
M  V30 10733 H 1047 0.772149 4.61688 0
M  V30 10734 H 1047.18 1.31728 6.3447 0
M  V30 10735 N 1040.58 -1.57259 0.103575 0
M  V30 10736 C 1041.81 -1.99424 -0.569638 0
M  V30 10737 C 1042.23 -0.982475 -1.60403 0
M  V30 10738 O 1041.59 0.0479231 -1.81237 0
M  V30 10739 C 1041.64 -3.40527 -1.18633 0
M  V30 10740 O 1040.74 -3.42167 -2.30208 0
M  V30 10741 H 1040.08 -0.648251 -0.143759 0
M  V30 10742 H 1042.61 -2.03739 0.187493 0
M  V30 10743 H 1042.62 -3.78404 -1.5256 0
M  V30 10744 H 1041.3 -4.13686 -0.428582 0
M  V30 10745 H 1039.88 -3.16093 -1.97837 0
M  V30 10746 N 1042.06 0.170153 -1.56679 0
M  V30 10747 C 1043.02 1.19443 -1.95617 0
M  V30 10748 C 1044.02 1.37118 -0.83996 0
M  V30 10749 O 1045.21 1.34504 -1.10699 0
M  V30 10750 C 1042.35 2.55926 -2.25199 0
M  V30 10751 H 1043.54 0.86095 -2.87276 0
M  V30 10752 H 1041.09 0.412646 -1.50755 0
M  V30 10753 H 1041.83 2.94286 -1.36257 0
M  V30 10754 H 1041.61 2.44464 -3.06562 0
M  V30 10755 H 1043.1 3.29742 -2.56242 0
M  V30 10756 N 1043.54 1.5137 0.438746 0
M  V30 10757 C 1044.49 1.73154 1.55308 0
M  V30 10758 C 1045.48 0.597825 1.58501 0
M  V30 10759 O 1046.69 0.77917 1.62262 0
M  V30 10760 H 1043.06 0.547083 0.51595 0
M  V30 10761 H 1045.03 2.66566 1.34108 0
M  V30 10762 C 1043.78 1.87242 2.92977 0
M  V30 10763 H 1043.1 2.73884 2.91252 0
M  V30 10764 H 1044.54 2.06497 3.70317 0
M  V30 10765 C 1043 0.631887 3.30921 0
M  V30 10766 O 1043.53 -0.214099 4.01129 0
M  V30 10767 N 1041.74 0.47639 2.86669 0
M  V30 10768 H 1041.29 1.16589 2.29706 0
M  V30 10769 H 1041.24 -0.352403 3.12419 0
M  V30 10770 N 1045.02 -0.694098 1.41492 0
M  V30 10771 C 1046.26 -1.45127 1.4065 0
M  V30 10772 C 1046.59 -1.94993 0.0170289 0
M  V30 10773 O 1045.86 -1.71799 -0.941372 0
M  V30 10774 H 1044.44 -0.538493 0.51772 0
M  V30 10775 H 1047.1 -0.821441 1.76744 0
M  V30 10776 H 1046.19 -2.31372 2.0946 0
M  V30 10777 N 1046.49 -1.27344 -0.928501 0
M  V30 10778 C 1047.42 -1.12517 -2.04602 0
M  V30 10779 C 1048.41 -0.0268563 -1.70079 0
M  V30 10780 O 1049.59 -0.201197 -1.93155 0
M  V30 10781 C 1046.72 -0.770749 -3.3864 0
M  V30 10782 C 1045.67 -1.8222 -3.87272 0
M  V30 10783 C 1045 -1.32178 -5.18105 0
M  V30 10784 C 1046.3 -3.22614 -4.10752 0
M  V30 10785 H 1047.99 -2.06 -2.17265 0
M  V30 10786 H 1045.54 -0.991827 -1.04397 0
M  V30 10787 H 1047.49 -0.653843 -4.16297 0
M  V30 10788 H 1046.22 0.19979 -3.25988 0
M  V30 10789 H 1044.88 -1.928 -3.11807 0
M  V30 10790 H 1044.52 -0.340719 -5.01845 0
M  V30 10791 H 1044.22 -2.02474 -5.51614 0
M  V30 10792 H 1045.75 -1.2178 -5.98333 0
M  V30 10793 H 1047.16 -3.1504 -4.78981 0
M  V30 10794 H 1045.56 -3.90614 -4.55566 0
M  V30 10795 H 1046.63 -3.67727 -3.16077 0
M  V30 10796 N 1047.97 1.13488 -1.09353 0
M  V30 10797 C 1048.9 2.20988 -0.75409 0
M  V30 10798 C 1049.88 1.67977 0.267901 0
M  V30 10799 O 1051.07 1.93722 0.136128 0
M  V30 10800 C 1048.2 3.46869 -0.173042 0
M  V30 10801 C 1047.15 4.12965 -1.12446 0
M  V30 10802 C 1046.48 5.33163 -0.405157 0
M  V30 10803 C 1047.78 4.60388 -2.46658 0
M  V30 10804 H 1049.47 2.49639 -1.6529 0
M  V30 10805 H 1047.02 1.19987 -0.796182 0
M  V30 10806 H 1048.97 4.21331 0.0764988 0
M  V30 10807 H 1047.7 3.17611 0.760956 0
M  V30 10808 H 1046.35 3.40469 -1.35927 0
M  V30 10809 H 1046 5.00169 0.532955 0
M  V30 10810 H 1045.7 5.78332 -1.03952 0
M  V30 10811 H 1047.23 6.1038 -0.163899 0
M  V30 10812 H 1048.64 5.26276 -2.27389 0
M  V30 10813 H 1047.04 5.16294 -3.05876 0
M  V30 10814 H 1048.11 3.74949 -3.07476 0
M  V30 10815 N 1049.45 0.880621 1.30701 0
M  V30 10816 C 1050.38 0.288813 2.26365 0
M  V30 10817 C 1051.36 -0.588135 1.51591 0
M  V30 10818 O 1052.55 -0.539197 1.80624 0
M  V30 10819 C 1049.67 -0.590032 3.33521 0
M  V30 10820 C 1048.72 0.217003 4.25948 0
M  V30 10821 S 1049.55 1.60246 5.10961 0
M  V30 10822 C 1050.71 0.730023 6.21628 0
M  V30 10823 H 1050.94 1.09971 2.76213 0
M  V30 10824 H 1048.47 0.67978 1.3863 0
M  V30 10825 H 1050.43 -1.09136 3.95727 0
M  V30 10826 H 1049.09 -1.37498 2.82406 0
M  V30 10827 H 1048.29 -0.453481 5.01956 0
M  V30 10828 H 1047.89 0.650803 3.68294 0
M  V30 10829 H 1050.18 -0.0548644 6.77478 0
M  V30 10830 H 1051.12 1.46157 6.92852 0
M  V30 10831 H 1051.53 0.292854 5.6374 0
M  V30 10832 N 1050.93 -1.4397 0.641131 0
M  V30 10833 C 1051.86 -2.33458 -0.04446 0
M  V30 10834 C 1052.84 -1.48781 -0.824507 0
M  V30 10835 O 1054.03 -1.77477 -0.788397 0
M  V30 10836 C 1051.16 -3.31989 -1.01984 0
M  V30 10837 C 1050.11 -4.2656 -0.350745 0
M  V30 10838 C 1049.44 -5.15036 -1.43673 0
M  V30 10839 C 1050.74 -5.16897 0.749299 0
M  V30 10840 H 1052.43 -2.91034 0.702832 0
M  V30 10841 H 1049.98 -1.39942 0.339435 0
M  V30 10842 H 1051.93 -3.93483 -1.50828 0
M  V30 10843 H 1050.65 -2.72643 -1.79815 0
M  V30 10844 H 1049.31 -3.66413 0.117139 0
M  V30 10845 H 1048.96 -4.52037 -2.20617 0
M  V30 10846 H 1048.66 -5.79125 -0.994358 0
M  V30 10847 H 1050.18 -5.79403 -1.92678 0
M  V30 10848 H 1051.6 -5.7227 0.343534 0
M  V30 10849 H 1049.99 -5.89643 1.11541 0
M  V30 10850 H 1051.06 -4.5731 1.61232 0
M  V30 10851 N 1052.41 -0.382291 -1.52893 0
M  V30 10852 C 1053.82 0.0932841 -1.86467 0
M  V30 10853 C 1054.17 1.4675 -1.30226 0
M  V30 10854 O 1053.29 2.07001 -0.63084 0
M  V30 10855 C 1053.89 0.176048 -3.38342 0
M  V30 10856 C 1052.45 0.595904 -3.71653 0
M  V30 10857 C 1051.6 -0.246511 -2.76202 0
M  V30 10858 H 1054.55 -0.600443 -1.46903 0
M  V30 10859 H 1054.57 0.996512 -3.67219 0
M  V30 10860 H 1054.08 -0.824264 -3.79246 0
M  V30 10861 H 1052.18 1.60384 -3.36315 0
M  V30 10862 H 1052.29 0.358919 -4.77754 0
M  V30 10863 H 1050.66 0.287162 -2.53076 0
M  V30 10864 H 1051.44 -1.24467 -3.19942 0
M  V30 10865 N 1053.89 1.57202 -0.111913 0
M  V30 10866 C 1055.3 1.82039 0.414591 0
M  V30 10867 C 1055.65 1.02863 1.67074 0
M  V30 10868 O 1054.77 0.263068 2.14795 0
M  V30 10869 C 1055.37 3.3019 0.758953 0
M  V30 10870 C 1053.93 3.55732 1.23012 0
M  V30 10871 C 1053.07 2.76301 0.235226 0
M  V30 10872 H 1056.02 1.55078 -0.337142 0
M  V30 10873 H 1056.05 3.44431 1.61701 0
M  V30 10874 H 1055.56 3.87788 -0.155473 0
M  V30 10875 H 1053.66 3.03483 2.16169 0
M  V30 10876 H 1053.77 4.64333 1.18034 0
M  V30 10877 H 1052.14 2.44287 0.720822 0
M  V30 10878 H 1052.92 3.36655 -0.672173 0
M  V30 10879 N 1055.36 -0.161842 1.56767 0
M  V30 10880 C 1056.31 -1.2002 1.97139 0
M  V30 10881 C 1057.28 -1.43486 0.836713 0
M  V30 10882 O 1058.47 -1.56069 1.0976 0
M  V30 10883 C 1055.61 -2.53228 2.34456 0
M  V30 10884 C 1054.72 -2.37062 3.61145 0
M  V30 10885 C 1053.85 -3.63202 3.87631 0
M  V30 10886 C 1052.89 -3.42008 5.07638 0
M  V30 10887 N 1052.03 -4.60242 5.30209 0
M  V30 10888 H 1056.87 -0.848918 2.85653 0
M  V30 10889 H 1054.41 -0.407753 1.41336 0
M  V30 10890 H 1056.36 -3.30879 2.54116 0
M  V30 10891 H 1054.99 -2.86333 1.4904 0
M  V30 10892 H 1054.05 -1.50539 3.49345 0
M  V30 10893 H 1055.36 -2.17353 4.48953 0
M  V30 10894 H 1054.51 -4.49285 4.0771 0
M  V30 10895 H 1053.25 -3.85899 2.98216 0
M  V30 10896 H 1052.26 -2.54312 4.87448 0
M  V30 10897 H 1053.48 -3.20724 5.98593 0
M  V30 10898 H 1051.43 -4.8314 4.43747 0
M  V30 10899 H 1051.34 -4.43481 6.12259 0
M  V30 10900 H 1052.61 -5.47581 5.54775 0
M  V30 10901 N 1056.84 -1.516 -0.430713 0
M  V30 10902 C 1058.07 -1.68414 -1.20185 0
M  V30 10903 C 1058.48 -0.384297 -1.84847 0
M  V30 10904 O 1057.84 0.637808 -1.70992 0
M  V30 10905 C 1057.89 -2.80451 -2.28099 0
M  V30 10906 O 1057.61 -4.05399 -1.66081 0
M  V30 10907 C 1059.11 -3.0859 -3.18256 0
M  V30 10908 H 1056.33 -0.564982 -0.361989 0
M  V30 10909 H 1058.88 -1.9805 -0.50954 0
M  V30 10910 H 1057.03 -2.53395 -2.93036 0
M  V30 10911 H 1057.45 -4.67671 -2.37453 0
M  V30 10912 H 1058.92 -3.9055 -3.90096 0
M  V30 10913 H 1059.4 -2.21264 -3.79393 0
M  V30 10914 H 1060 -3.37331 -2.59014 0
M  V30 10915 N 1058.32 0.686584 -1.41858 0
M  V30 10916 C 1059.23 1.83002 -1.46791 0
M  V30 10917 C 1060.25 1.70284 -0.357675 0
M  V30 10918 O 1061.42 1.92042 -0.606781 0
M  V30 10919 C 1058.49 3.19056 -1.35661 0
M  V30 10920 C 1057.55 3.43817 -2.57077 0
M  V30 10921 C 1056.78 4.7338 -2.46469 0
M  V30 10922 O 1057 5.50483 -1.49413 0
M  V30 10923 O 1055.94 4.99124 -3.36391 0
M  V30 10924 H 1059.76 1.81797 -2.43277 0
M  V30 10925 H 1057.35 0.840812 -1.23494 0
M  V30 10926 H 1059.23 4.00267 -1.31773 0
M  V30 10927 H 1057.91 3.20925 -0.422951 0
M  V30 10928 H 1056.81 2.625 -2.66541 0
M  V30 10929 H 1058.15 3.4677 -3.49302 0
M  V30 10930 N 1059.8 1.27835 0.921735 0
M  V30 10931 C 1060.73 1.06874 2.02758 0
M  V30 10932 C 1061.74 0.0229418 1.62784 0
M  V30 10933 O 1062.93 0.265145 1.7652 0
M  V30 10934 C 1060.03 0.60037 3.3354 0
M  V30 10935 C 1059.2 1.71979 4.02172 0
M  V30 10936 C 1058.26 1.24615 5.11231 0
M  V30 10937 O 1057.29 1.94692 5.34868 0
M  V30 10938 N 1058.49 0.105021 5.80405 0
M  V30 10939 H 1061.26 2.02105 2.213 0
M  V30 10940 H 1058.82 1.19481 1.09251 0
M  V30 10941 H 1060.81 0.267281 4.03816 0
M  V30 10942 H 1059.38 -0.258872 3.11526 0
M  V30 10943 H 1058.6 2.22287 3.25549 0
M  V30 10944 H 1059.89 2.47092 4.44773 0
M  V30 10945 H 1059.29 -0.479745 5.63662 0
M  V30 10946 H 1057.84 -0.168846 6.51581 0
M  V30 10947 N 1061.28 -1.12907 1.09954 0
M  V30 10948 C 1062.51 -1.87866 0.859656 0
M  V30 10949 C 1062.91 -1.79664 -0.593096 0
M  V30 10950 O 1062.26 -1.16499 -1.42034 0
M  V30 10951 C 1062.32 -3.38055 1.22308 0
M  V30 10952 C 1061.98 -3.70035 2.68185 0
M  V30 10953 C 1062.98 -3.68817 3.66428 0
M  V30 10954 C 1060.66 -3.99523 3.04444 0
M  V30 10955 C 1062.66 -3.96639 4.98955 0
M  V30 10956 C 1060.35 -4.27006 4.37161 0
M  V30 10957 C 1061.34 -4.25549 5.34225 0
M  V30 10958 O 1061.03 -4.52354 6.64553 0
M  V30 10959 H 1060.76 -0.601425 0.308649 0
M  V30 10960 H 1063.32 -1.43817 1.46649 0
M  V30 10961 H 1061.55 -3.82634 0.559322 0
M  V30 10962 H 1063.24 -3.94348 0.961479 0
M  V30 10963 H 1064 -3.46104 3.3976 0
M  V30 10964 H 1059.88 -3.99801 2.29521 0
M  V30 10965 H 1063.43 -3.95418 5.74709 0
M  V30 10966 H 1059.32 -4.49192 4.6357 0
M  V30 10967 H 1060.09 -4.69997 6.70108 0
M  V30 10968 N 1062.75 -0.88754 -1.30232 0
M  V30 10969 C 1064 -0.508031 -1.96334 0
M  V30 10970 C 1064.33 0.940905 -1.69884 0
M  V30 10971 O 1063.61 1.66523 -1.005 0
M  V30 10972 C 1063.89 -0.786566 -3.51405 0
M  V30 10973 C 1063.74 -2.28632 -3.8736 0
M  V30 10974 C 1065.06 -0.264803 -4.39303 0
M  V30 10975 H 1062.18 -0.186051 -0.71313 0
M  V30 10976 H 1064.82 -1.112 -1.5406 0
M  V30 10977 H 1062.97 -0.272523 -3.87543 0
M  V30 10978 H 1064.65 -2.86896 -3.61231 0
M  V30 10979 H 1062.89 -2.75194 -3.35337 0
M  V30 10980 H 1063.56 -2.43181 -4.95547 0
M  V30 10981 H 1066.04 -0.704809 -4.10087 0
M  V30 10982 H 1064.91 -0.488998 -5.46717 0
M  V30 10983 H 1065.17 0.834055 -4.34161 0
M  V30 10984 N 1064.23 1.43628 -0.648757 0
M  V30 10985 C 1065.14 2.34554 0.0463037 0
M  V30 10986 C 1066.16 1.53629 0.816952 0
M  V30 10987 O 1067.33 1.86297 0.765212 0
M  V30 10988 C 1064.4 3.3185 1.00381 0
M  V30 10989 C 1063.46 4.2868 0.230589 0
M  V30 10990 C 1062.69 5.21328 1.14249 0
M  V30 10991 O 1062.92 5.18298 2.38166 0
M  V30 10992 O 1061.85 5.98726 0.617296 0
M  V30 10993 H 1065.68 2.95475 -0.702008 0
M  V30 10994 H 1063.26 1.43694 -0.408942 0
M  V30 10995 H 1065.14 3.91692 1.5542 0
M  V30 10996 H 1063.82 2.73439 1.73243 0
M  V30 10997 H 1062.73 3.72332 -0.363282 0
M  V30 10998 H 1064.06 4.90061 -0.458368 0
M  V30 10999 N 1065.71 0.390394 1.52688 0
M  V30 11000 C 1066.64 -0.43567 2.294 0
M  V30 11001 C 1067.62 -1.06253 1.32832 0
M  V30 11002 O 1068.81 -1.07509 1.61726 0
M  V30 11003 C 1065.94 -1.56259 3.10162 0
M  V30 11004 C 1064.89 -1.06172 4.14622 0
M  V30 11005 C 1064.22 -2.2808 4.83615 0
M  V30 11006 C 1065.52 -0.128902 5.22141 0
M  V30 11007 H 1067.21 0.204384 2.98702 0
M  V30 11008 H 1064.76 0.0997377 1.43654 0
M  V30 11009 H 1066.71 -2.14732 3.62585 0
M  V30 11010 H 1065.43 -2.23025 2.38595 0
M  V30 11011 H 1064.09 -0.499518 3.63181 0
M  V30 11012 H 1063.74 -2.93358 4.08595 0
M  V30 11013 H 1063.44 -1.95227 5.5422 0
M  V30 11014 H 1064.96 -2.87193 5.38844 0
M  V30 11015 H 1066.38 -0.621849 5.69917 0
M  V30 11016 H 1064.78 0.109919 5.99999 0
M  V30 11017 H 1065.85 0.821884 4.77884 0
M  V30 11018 N 1067.19 -1.57141 0.120249 0
M  V30 11019 C 1068.14 -2.11936 -0.84067 0
M  V30 11020 C 1069.12 -1.04044 -1.22734 0
M  V30 11021 O 1070.31 -1.30275 -1.19822 0
M  V30 11022 C 1067.44 -2.72332 -2.09023 0
M  V30 11023 C 1066.53 -3.87306 -1.72786 0
M  V30 11024 N 1066.92 -4.94302 -1.07232 0
M  V30 11025 C 1065.22 -3.97513 -2.02236 0
M  V30 11026 C 1065.92 -5.7467 -0.901626 0
M  V30 11027 N 1064.9 -5.24535 -1.42702 0
M  V30 11028 H 1068.7 -2.92038 -0.330308 0
M  V30 11029 H 1066.21 -1.62192 -0.0821814 0
M  V30 11030 H 1068.21 -3.09932 -2.78833 0
M  V30 11031 H 1066.87 -1.93693 -2.60601 0
M  V30 11032 H 1067.88 -5.12641 -0.736158 0
M  V30 11033 H 1064.56 -3.29917 -2.55853 0
M  V30 11034 H 1065.95 -6.70785 -0.386974 0
M  V30 11035 N 1068.67 0.153526 -1.5685 0
M  V30 11036 C 1069.61 1.18973 -1.97773 0
M  V30 11037 C 1070.58 1.43041 -0.844311 0
M  V30 11038 O 1071.77 1.55484 -1.10586 0
M  V30 11039 C 1068.91 2.51981 -2.35795 0
M  V30 11040 C 1068.02 2.35143 -3.62397 0
M  V30 11041 C 1067.16 3.61141 -3.89552 0
M  V30 11042 C 1066.2 3.39311 -5.09445 0
M  V30 11043 N 1065.33 4.57423 -5.32643 0
M  V30 11044 H 1070.17 0.833758 -2.86099 0
M  V30 11045 H 1067.71 0.400252 -1.4155 0
M  V30 11046 H 1069.67 3.29527 -2.55867 0
M  V30 11047 H 1068.3 2.85539 -1.50557 0
M  V30 11048 H 1067.35 1.48684 -3.50139 0
M  V30 11049 H 1068.66 2.14969 -4.501 0
M  V30 11050 H 1067.82 4.47117 -4.10087 0
M  V30 11051 H 1066.55 3.84312 -3.00259 0
M  V30 11052 H 1065.56 2.51723 -4.8879 0
M  V30 11053 H 1066.78 3.17545 -6.00285 0
M  V30 11054 H 1064.73 4.8078 -4.46303 0
M  V30 11055 H 1064.65 4.40228 -6.14602 0
M  V30 11056 H 1065.92 5.44632 -5.57671 0
M  V30 11057 N 1070.14 1.51827 0.422667 0
M  V30 11058 C 1071.39 1.64893 1.16853 0
M  V30 11059 C 1071.71 0.37456 1.91369 0
M  V30 11060 O 1070.98 -0.610128 1.86157 0
M  V30 11061 H 1069.56 0.607744 0.434345 0
M  V30 11062 H 1072.23 1.88816 0.483159 0
M  V30 11063 H 1071.32 2.48361 1.89006 0
M  V30 11064 N 1071.62 -0.679052 1.4222 0
M  V30 11065 C 1072.53 -1.82221 1.47759 0
M  V30 11066 C 1073.55 -1.70092 0.3667 0
M  V30 11067 O 1074.72 -1.91718 0.616957 0
M  V30 11068 C 1071.79 -3.18332 1.37351 0
M  V30 11069 C 1070.85 -3.42449 2.58896 0
M  V30 11070 C 1070.08 -4.72067 2.48976 0
M  V30 11071 O 1070.31 -5.49683 1.5233 0
M  V30 11072 O 1069.24 -4.97333 3.39033 0
M  V30 11073 H 1073.07 -1.80504 2.44238 0
M  V30 11074 H 1070.65 -0.834251 1.23938 0
M  V30 11075 H 1072.53 -3.99563 1.33893 0
M  V30 11076 H 1071.21 -3.20696 0.439965 0
M  V30 11077 H 1070.12 -2.61083 2.6793 0
M  V30 11078 H 1071.45 -3.44912 3.51136 0
M  V30 11079 N 1073.1 -1.28322 -0.914942 0
M  V30 11080 C 1074.35 -1.15578 -1.66642 0
M  V30 11081 C 1074.68 0.295209 -1.91943 0
M  V30 11082 O 1073.95 1.21482 -1.51896 0
M  V30 11083 C 1074.24 -1.9535 -3.02507 0
M  V30 11084 C 1074.09 -3.48504 -2.84367 0
M  V30 11085 C 1075.41 -1.76798 -4.03027 0
M  V30 11086 H 1072.53 -0.421234 -0.604757 0
M  V30 11087 H 1075.17 -1.57625 -1.06087 0
M  V30 11088 H 1073.32 -1.59619 -3.54195 0
M  V30 11089 H 1074.99 -3.94135 -2.39699 0
M  V30 11090 H 1073.24 -3.74198 -2.1945 0
M  V30 11091 H 1073.91 -3.99576 -3.80845 0
M  V30 11092 H 1076.38 -2.07977 -3.60395 0
M  V30 11093 H 1075.26 -2.34987 -4.96057 0
M  V30 11094 H 1075.52 -0.719162 -4.36211 0
M  V30 11095 N 1074.58 1.12322 -1.10551 0
M  V30 11096 C 1075.82 1.8413 -0.849932 0
M  V30 11097 C 1076.16 1.83938 0.622946 0
M  V30 11098 O 1075.43 1.28579 1.45937 0
M  V30 11099 C 1075.72 3.31751 -1.40048 0
M  V30 11100 C 1075.57 3.40391 -2.9403 0
M  V30 11101 C 1076.89 4.27543 -1.04379 0
M  V30 11102 H 1074.01 0.668533 -0.310213 0
M  V30 11103 H 1076.65 1.31766 -1.36886 0
M  V30 11104 H 1074.8 3.76475 -0.959102 0
M  V30 11105 H 1076.47 3.04294 -3.46703 0
M  V30 11106 H 1074.71 2.809 -3.30571 0
M  V30 11107 H 1075.38 4.44252 -3.27635 0
M  V30 11108 H 1077.86 3.90951 -1.42466 0
M  V30 11109 H 1076.74 5.2924 -1.4559 0
M  V30 11110 H 1077 4.42075 0.0466316 0
M  V30 11111 N 1076.06 0.894434 1.2976 0
M  V30 11112 C 1077.33 0.437365 1.90648 0
M  V30 11113 C 1077.71 -1.08261 1.81226 0
M  V30 11114 O 1077.06 -1.92213 1.23557 0
M  V30 11115 C 1077.27 0.946047 3.35933 0
M  V30 11116 C 1078.62 0.986621 4.12978 0
M  V30 11117 O 1079.64 0.893356 3.44815 0
M  V30 11118 O 1078.5 1.12591 5.34776 0
M  V30 11119 H 1075.6 0.135436 0.815835 0
M  V30 11120 H 1078.14 0.983955 1.38262 0
M  V30 11121 H 1076.91 1.98998 3.3692 0
M  V30 11122 H 1076.54 0.379164 3.95788 0
M  V30 11123 N 1077.53 -1.43282 0.656365 0
M  V30 11124 C 1078.78 -2.02075 0.171293 0
M  V30 11125 C 1079.11 -1.51682 -1.21269 0
M  V30 11126 O 1078.39 -0.711243 -1.81029 0
M  V30 11127 C 1078.67 -3.59621 0.185602 0
M  V30 11128 C 1078.52 -4.20239 1.60373 0
M  V30 11129 C 1079.84 -4.37515 -0.476289 0
M  V30 11130 H 1076.96 -0.73424 0.0637185 0
M  V30 11131 H 1079.6 -1.70539 0.837648 0
M  V30 11132 H 1077.75 -3.86619 -0.381804 0
M  V30 11133 H 1079.43 -4.0426 2.22197 0
M  V30 11134 H 1077.67 -3.76769 2.15006 0
M  V30 11135 H 1078.34 -5.29333 1.56557 0
M  V30 11136 H 1080.82 -4.16099 0.00651073 0
M  V30 11137 H 1079.69 -5.47169 -0.435562 0
M  V30 11138 H 1079.95 -4.14003 -1.55093 0
M  V30 11139 N 1079.01 -0.398486 -1.52479 0
M  V30 11140 C 1079.95 0.476551 -2.23169 0
M  V30 11141 C 1080.92 1.05665 -1.23587 0
M  V30 11142 O 1082.11 1.10654 -1.52604 0
M  V30 11143 C 1079.24 1.66048 -2.95204 0
M  V30 11144 C 1078.28 1.20478 -4.0913 0
M  V30 11145 S 1079.11 0.178711 -5.35202 0
M  V30 11146 C 1080.27 1.36821 -6.10762 0
M  V30 11147 H 1080.5 -0.123704 -2.97043 0
M  V30 11148 H 1078.04 -0.182722 -1.53315 0
M  V30 11149 H 1079.99 2.33942 -3.37315 0
M  V30 11150 H 1078.66 2.23206 -2.20993 0
M  V30 11151 H 1077.85 2.08901 -4.58668 0
M  V30 11152 H 1077.45 0.604632 -3.6908 0
M  V30 11153 H 1079.74 2.2937 -6.37492 0
M  V30 11154 H 1080.69 0.913579 -7.02182 0
M  V30 11155 H 1081.09 1.58919 -5.41669 0
M  V30 11156 N 1080.49 1.57075 -0.12858 0
M  V30 11157 C 1081.74 1.9581 0.527868 0
M  V30 11158 C 1082.07 1.01253 1.65715 0
M  V30 11159 O 1081.35 0.0514853 1.94432 0
M  V30 11160 C 1081.63 3.44406 1.05151 0
M  V30 11161 C 1081.48 4.49737 -0.0750113 0
M  V30 11162 C 1082.8 3.95069 1.9393 0
M  V30 11163 H 1079.92 0.711978 0.19041 0
M  V30 11164 H 1082.56 1.88879 -0.206081 0
M  V30 11165 H 1080.71 3.50443 1.67697 0
M  V30 11166 H 1082.38 4.55793 -0.710685 0
M  V30 11167 H 1080.63 4.27497 -0.736809 0
M  V30 11168 H 1081.3 5.50996 0.332779 0
M  V30 11169 H 1083.77 3.91395 1.41241 0
M  V30 11170 H 1082.65 4.99542 2.27484 0
M  V30 11171 H 1082.91 3.36329 2.86941 0
M  V30 11172 N 1081.97 -0.145205 1.5693 0
M  V30 11173 C 1083.22 -0.855955 1.82637 0
M  V30 11174 C 1083.53 -1.82255 0.710109 0
M  V30 11175 O 1084.74 -2.57758 0.852837 0
M  V30 11176 C 1083.19 -1.57278 3.23715 0
M  V30 11177 C 1082.8 -0.648507 4.43281 0
M  V30 11178 C 1084.55 -2.27021 3.58695 0
M  V30 11179 C 1082.45 -1.36706 5.75383 0
M  V30 11180 H 1081.38 -0.323385 0.68113 0
M  V30 11181 H 1084.03 -0.10869 1.83178 0
M  V30 11182 H 1082.42 -2.36574 3.17567 0
M  V30 11183 H 1083.59 0.109355 4.6067 0
M  V30 11184 H 1081.9 -0.0594029 4.16358 0
M  V30 11185 H 1084.5 -2.81423 4.54648 0
M  V30 11186 H 1084.84 -3.03598 2.8484 0
M  V30 11187 H 1085.38 -1.54642 3.66512 0
M  V30 11188 H 1082.12 -0.6431 6.52338 0
M  V30 11189 H 1081.64 -2.09759 5.61926 0
M  V30 11190 H 1083.32 -1.90748 6.18243 0
M  V30 11191 N 1083.45 -1.52049 -0.414609 0
M  V30 11192 C 1084.7 -1.65511 -1.15977 0
M  V30 11193 C 1085.02 -0.384703 -1.91168 0
M  V30 11194 O 1084.29 0.600247 -1.86477 0
M  V30 11195 H 1082.87 -0.610039 -0.431116 0
M  V30 11196 H 1085.53 -1.8907 -0.473139 0
M  V30 11197 H 1084.62 -2.4936 -1.87686 0
M  V30 11198 N 1084.93 0.6715 -1.42579 0
M  V30 11199 C 1086.34 0.985019 -1.25577 0
M  V30 11200 C 1086.54 2.00845 -0.162319 0
M  V30 11201 O 1085.6 2.48175 0.465352 0
M  V30 11202 C 1086.91 1.48668 -2.61377 0
M  V30 11203 C 1088.46 1.60429 -2.68759 0
M  V30 11204 C 1088.93 2.13991 -4.04935 0
M  V30 11205 N 1090.42 2.21319 -4.06906 0
M  V30 11206 C 1091.16 2.63845 -5.09091 0
M  V30 11207 N 1090.66 3.05799 -6.21658 0
M  V30 11208 N 1092.45 2.63623 -4.96447 0
M  V30 11209 H 1084.6 -0.00604561 -2.12399 0
M  V30 11210 H 1086.86 0.0598299 -0.94611 0
M  V30 11211 H 1086.57 0.80917 -3.42265 0
M  V30 11212 H 1086.44 2.46487 -2.85524 0
M  V30 11213 H 1088.83 2.27286 -1.88216 0
M  V30 11214 H 1088.91 0.610909 -2.48398 0
M  V30 11215 H 1088.55 1.47741 -4.85937 0
M  V30 11216 H 1088.48 3.14126 -4.2265 0
M  V30 11217 H 1090.98 1.91743 -3.25643 0
M  V30 11218 H 1091.29 3.36944 -6.95477 0
M  V30 11219 H 1089.63 3.03648 -6.25158 0
M  V30 11220 H 1092.82 2.30211 -4.07579 0
M  V30 11221 H 1093 2.96444 -5.76216 0
M  V30 11222 N 1086.4 1.28806 0.908124 0
M  V30 11223 C 1087.33 1.15758 2.02787 0
M  V30 11224 C 1088.31 0.053911 1.70015 0
M  V30 11225 O 1089.5 0.231901 1.9281 0
M  V30 11226 C 1086.63 0.824526 3.37371 0
M  V30 11227 C 1085.58 1.88359 3.84324 0
M  V30 11228 C 1084.91 1.40404 5.15937 0
M  V30 11229 C 1086.21 3.29108 4.05568 0
M  V30 11230 H 1087.9 2.09431 2.13961 0
M  V30 11231 H 1085.45 1.00831 1.02806 0
M  V30 11232 H 1087.4 0.71999 4.15204 0
M  V30 11233 H 1086.13 -0.147902 3.26265 0
M  V30 11234 H 1084.79 1.97736 3.087 0
M  V30 11235 H 1084.43 0.420515 5.01239 0
M  V30 11236 H 1084.13 2.11224 5.48323 0
M  V30 11237 H 1085.66 1.31283 5.9632 0
M  V30 11238 H 1087.07 3.2262 4.73909 0
M  V30 11239 H 1085.47 3.97812 4.49294 0
M  V30 11240 H 1086.54 3.72709 3.10187 0
M  V30 11241 O 1087.92 -1.04325 1.23282 0
M  V30 11242 H 1088.61 -1.65689 1.00334 0
M  V30 END ATOM
M  V30 BEGIN BOND
M  V30 END BOND
M  V30 END CTAB
M  END
$$$$
